# total energy = -899.8194712648404 ev

CRYSTAL
PRIMVEC
12.783595000000002 0.0 0.0
0.0 12.783595000000002 0.0
0.0 0.0 66.390107022868
PRIMCOORD
250 1 
Cu 0.0 0.0 39.613003726434 0.0 0.0 0.0
Cu 1.2783595 1.2783595 41.390107022868 0.0 0.0 0.0
Cu 0.0 0.0 35.946238941908 0.0 0.0 0.0
Cu 1.2783595 1.2783595 37.77931399570999 0.0 0.0 0.0
Cu 0.0 0.0 32.274737529336 0.0 0.0 0.0
Cu 1.2783595 1.2783595 34.115369493532 0.0 0.0 0.0
Cu 0.0 0.0 28.610793027157996 0.0 0.0 0.0
Cu 1.2783595 1.2783595 30.443868080959994 0.0 0.0 0.0
Cu 0.0 0.0 25.0 0.0 0.0 0.0
Cu 1.2783595 1.2783595 26.777103296434 0.0 0.0 0.0
Cu 0.0 2.556719 39.613003726434 0.0 0.0 0.0
Cu 1.2783595 3.8350785000000003 41.390107022868 0.0 0.0 0.0
Cu 0.0 2.556719 35.946238941908 0.0 0.0 0.0
Cu 1.2783595 3.8350785000000003 37.77931399570999 0.0 0.0 0.0
Cu 0.0 2.556719 32.274737529336 0.0 0.0 0.0
Cu 1.2783595 3.8350785000000003 34.115369493532 0.0 0.0 0.0
Cu 0.0 2.556719 28.610793027157996 0.0 0.0 0.0
Cu 1.2783595 3.8350785000000003 30.443868080959994 0.0 0.0 0.0
Cu 0.0 2.556719 25.0 0.0 0.0 0.0
Cu 1.2783595 3.8350785000000003 26.777103296434 0.0 0.0 0.0
Cu 0.0 5.113438 39.613003726434 0.0 0.0 0.0
Cu 1.2783595 6.391797500000001 41.390107022868 0.0 0.0 0.0
Cu 0.0 5.113438 35.946238941908 0.0 0.0 0.0
Cu 1.2783595 6.391797500000001 37.77931399570999 0.0 0.0 0.0
Cu 0.0 5.113438 32.274737529336 0.0 0.0 0.0
Cu 1.2783595 6.391797500000001 34.115369493532 0.0 0.0 0.0
Cu 0.0 5.113438 28.610793027157996 0.0 0.0 0.0
Cu 1.2783595 6.391797500000001 30.443868080959994 0.0 0.0 0.0
Cu 0.0 5.113438 25.0 0.0 0.0 0.0
Cu 1.2783595 6.391797500000001 26.777103296434 0.0 0.0 0.0
Cu 0.0 7.670157000000001 39.613003726434 0.0 0.0 0.0
Cu 1.2783595 8.9485165 41.390107022868 0.0 0.0 0.0
Cu 0.0 7.670157000000001 35.946238941908 0.0 0.0 0.0
Cu 1.2783595 8.9485165 37.77931399570999 0.0 0.0 0.0
Cu 0.0 7.670157000000001 32.274737529336 0.0 0.0 0.0
Cu 1.2783595 8.9485165 34.115369493532 0.0 0.0 0.0
Cu 0.0 7.670157000000001 28.610793027157996 0.0 0.0 0.0
Cu 1.2783595 8.9485165 30.443868080959994 0.0 0.0 0.0
Cu 0.0 7.670157000000001 25.0 0.0 0.0 0.0
Cu 1.2783595 8.9485165 26.777103296434 0.0 0.0 0.0
Cu 0.0 10.226876 39.613003726434 0.0 0.0 0.0
Cu 1.2783595 11.505235500000001 41.390107022868 0.0 0.0 0.0
Cu 0.0 10.226876 35.946238941908 0.0 0.0 0.0
Cu 1.2783595 11.505235500000001 37.77931399570999 0.0 0.0 0.0
Cu 0.0 10.226876 32.274737529336 0.0 0.0 0.0
Cu 1.2783595 11.505235500000001 34.115369493532 0.0 0.0 0.0
Cu 0.0 10.226876 28.610793027157996 0.0 0.0 0.0
Cu 1.2783595 11.505235500000001 30.443868080959994 0.0 0.0 0.0
Cu 0.0 10.226876 25.0 0.0 0.0 0.0
Cu 1.2783595 11.505235500000001 26.777103296434 0.0 0.0 0.0
Cu 2.556719 0.0 39.613003726434 0.0 0.0 0.0
Cu 3.8350785000000003 1.2783595 41.390107022868 0.0 0.0 0.0
Cu 2.556719 0.0 35.946238941908 0.0 0.0 0.0
Cu 3.8350785000000003 1.2783595 37.77931399570999 0.0 0.0 0.0
Cu 2.556719 0.0 32.274737529336 0.0 0.0 0.0
Cu 3.8350785000000003 1.2783595 34.115369493532 0.0 0.0 0.0
Cu 2.556719 0.0 28.610793027157996 0.0 0.0 0.0
Cu 3.8350785000000003 1.2783595 30.443868080959994 0.0 0.0 0.0
Cu 2.556719 0.0 25.0 0.0 0.0 0.0
Cu 3.8350785000000003 1.2783595 26.777103296434 0.0 0.0 0.0
Cu 2.556719 2.556719 39.613003726434 0.0 0.0 0.0
Cu 3.8350785000000003 3.8350785000000003 41.390107022868 0.0 0.0 0.0
Cu 2.556719 2.556719 35.946238941908 0.0 0.0 0.0
Cu 3.8350785000000003 3.8350785000000003 37.77931399570999 0.0 0.0 0.0
Cu 2.556719 2.556719 32.274737529336 0.0 0.0 0.0
Cu 3.8350785000000003 3.8350785000000003 34.115369493532 0.0 0.0 0.0
Cu 2.556719 2.556719 28.610793027157996 0.0 0.0 0.0
Cu 3.8350785000000003 3.8350785000000003 30.443868080959994 0.0 0.0 0.0
Cu 2.556719 2.556719 25.0 0.0 0.0 0.0
Cu 3.8350785000000003 3.8350785000000003 26.777103296434 0.0 0.0 0.0
Cu 2.556719 5.113438 39.613003726434 0.0 0.0 0.0
Cu 3.8350785000000003 6.391797500000001 41.390107022868 0.0 0.0 0.0
Cu 2.556719 5.113438 35.946238941908 0.0 0.0 0.0
Cu 3.8350785000000003 6.391797500000001 37.77931399570999 0.0 0.0 0.0
Cu 2.556719 5.113438 32.274737529336 0.0 0.0 0.0
Cu 3.8350785000000003 6.391797500000001 34.115369493532 0.0 0.0 0.0
Cu 2.556719 5.113438 28.610793027157996 0.0 0.0 0.0
Cu 3.8350785000000003 6.391797500000001 30.443868080959994 0.0 0.0 0.0
Cu 2.556719 5.113438 25.0 0.0 0.0 0.0
Cu 3.8350785000000003 6.391797500000001 26.777103296434 0.0 0.0 0.0
Cu 2.556719 7.670157000000001 39.613003726434 0.0 0.0 0.0
Cu 3.8350785000000003 8.9485165 41.390107022868 0.0 0.0 0.0
Cu 2.556719 7.670157000000001 35.946238941908 0.0 0.0 0.0
Cu 3.8350785000000003 8.9485165 37.77931399570999 0.0 0.0 0.0
Cu 2.556719 7.670157000000001 32.274737529336 0.0 0.0 0.0
Cu 3.8350785000000003 8.9485165 34.115369493532 0.0 0.0 0.0
Cu 2.556719 7.670157000000001 28.610793027157996 0.0 0.0 0.0
Cu 3.8350785000000003 8.9485165 30.443868080959994 0.0 0.0 0.0
Cu 2.556719 7.670157000000001 25.0 0.0 0.0 0.0
Cu 3.8350785000000003 8.9485165 26.777103296434 0.0 0.0 0.0
Cu 2.556719 10.226876 39.613003726434 0.0 0.0 0.0
Cu 3.8350785000000003 11.505235500000001 41.390107022868 0.0 0.0 0.0
Cu 2.556719 10.226876 35.946238941908 0.0 0.0 0.0
Cu 3.8350785000000003 11.505235500000001 37.77931399570999 0.0 0.0 0.0
Cu 2.556719 10.226876 32.274737529336 0.0 0.0 0.0
Cu 3.8350785000000003 11.505235500000001 34.115369493532 0.0 0.0 0.0
Cu 2.556719 10.226876 28.610793027157996 0.0 0.0 0.0
Cu 3.8350785000000003 11.505235500000001 30.443868080959994 0.0 0.0 0.0
Cu 2.556719 10.226876 25.0 0.0 0.0 0.0
Cu 3.8350785000000003 11.505235500000001 26.777103296434 0.0 0.0 0.0
Cu 5.113438 0.0 39.613003726434 0.0 0.0 0.0
Cu 6.391797500000001 1.2783595 41.390107022868 0.0 0.0 0.0
Cu 5.113438 0.0 35.946238941908 0.0 0.0 0.0
Cu 6.391797500000001 1.2783595 37.77931399570999 0.0 0.0 0.0
Cu 5.113438 0.0 32.274737529336 0.0 0.0 0.0
Cu 6.391797500000001 1.2783595 34.115369493532 0.0 0.0 0.0
Cu 5.113438 0.0 28.610793027157996 0.0 0.0 0.0
Cu 6.391797500000001 1.2783595 30.443868080959994 0.0 0.0 0.0
Cu 5.113438 0.0 25.0 0.0 0.0 0.0
Cu 6.391797500000001 1.2783595 26.777103296434 0.0 0.0 0.0
Cu 5.113438 2.556719 39.613003726434 0.0 0.0 0.0
Cu 6.391797500000001 3.8350785000000003 41.390107022868 0.0 0.0 0.0
Cu 5.113438 2.556719 35.946238941908 0.0 0.0 0.0
Cu 6.391797500000001 3.8350785000000003 37.77931399570999 0.0 0.0 0.0
Cu 5.113438 2.556719 32.274737529336 0.0 0.0 0.0
Cu 6.391797500000001 3.8350785000000003 34.115369493532 0.0 0.0 0.0
Cu 5.113438 2.556719 28.610793027157996 0.0 0.0 0.0
Cu 6.391797500000001 3.8350785000000003 30.443868080959994 0.0 0.0 0.0
Cu 5.113438 2.556719 25.0 0.0 0.0 0.0
Cu 6.391797500000001 3.8350785000000003 26.777103296434 0.0 0.0 0.0
Cu 5.113438 5.113438 39.613003726434 0.0 0.0 0.0
Cu 6.391797500000001 6.391797500000001 41.390107022868 0.0 0.0 0.0
Cu 5.113438 5.113438 35.946238941908 0.0 0.0 0.0
Cu 6.391797500000001 6.391797500000001 37.77931399570999 0.0 0.0 0.0
Cu 5.113438 5.113438 32.274737529336 0.0 0.0 0.0
Cu 6.391797500000001 6.391797500000001 34.115369493532 0.0 0.0 0.0
Cu 5.113438 5.113438 28.610793027157996 0.0 0.0 0.0
Cu 6.391797500000001 6.391797500000001 30.443868080959994 0.0 0.0 0.0
Cu 5.113438 5.113438 25.0 0.0 0.0 0.0
Cu 6.391797500000001 6.391797500000001 26.777103296434 0.0 0.0 0.0
Cu 5.113438 7.670157000000001 39.613003726434 0.0 0.0 0.0
Cu 6.391797500000001 8.9485165 41.390107022868 0.0 0.0 0.0
Cu 5.113438 7.670157000000001 35.946238941908 0.0 0.0 0.0
Cu 6.391797500000001 8.9485165 37.77931399570999 0.0 0.0 0.0
Cu 5.113438 7.670157000000001 32.274737529336 0.0 0.0 0.0
Cu 6.391797500000001 8.9485165 34.115369493532 0.0 0.0 0.0
Cu 5.113438 7.670157000000001 28.610793027157996 0.0 0.0 0.0
Cu 6.391797500000001 8.9485165 30.443868080959994 0.0 0.0 0.0
Cu 5.113438 7.670157000000001 25.0 0.0 0.0 0.0
Cu 6.391797500000001 8.9485165 26.777103296434 0.0 0.0 0.0
Cu 5.113438 10.226876 39.613003726434 0.0 0.0 0.0
Cu 6.391797500000001 11.505235500000001 41.390107022868 0.0 0.0 0.0
Cu 5.113438 10.226876 35.946238941908 0.0 0.0 0.0
Cu 6.391797500000001 11.505235500000001 37.77931399570999 0.0 0.0 0.0
Cu 5.113438 10.226876 32.274737529336 0.0 0.0 0.0
Cu 6.391797500000001 11.505235500000001 34.115369493532 0.0 0.0 0.0
Cu 5.113438 10.226876 28.610793027157996 0.0 0.0 0.0
Cu 6.391797500000001 11.505235500000001 30.443868080959994 0.0 0.0 0.0
Cu 5.113438 10.226876 25.0 0.0 0.0 0.0
Cu 6.391797500000001 11.505235500000001 26.777103296434 0.0 0.0 0.0
Cu 7.670157000000001 0.0 39.613003726434 0.0 0.0 0.0
Cu 8.9485165 1.2783595 41.390107022868 0.0 0.0 0.0
Cu 7.670157000000001 0.0 35.946238941908 0.0 0.0 0.0
Cu 8.9485165 1.2783595 37.77931399570999 0.0 0.0 0.0
Cu 7.670157000000001 0.0 32.274737529336 0.0 0.0 0.0
Cu 8.9485165 1.2783595 34.115369493532 0.0 0.0 0.0
Cu 7.670157000000001 0.0 28.610793027157996 0.0 0.0 0.0
Cu 8.9485165 1.2783595 30.443868080959994 0.0 0.0 0.0
Cu 7.670157000000001 0.0 25.0 0.0 0.0 0.0
Cu 8.9485165 1.2783595 26.777103296434 0.0 0.0 0.0
Cu 7.670157000000001 2.556719 39.613003726434 0.0 0.0 0.0
Cu 8.9485165 3.8350785000000003 41.390107022868 0.0 0.0 0.0
Cu 7.670157000000001 2.556719 35.946238941908 0.0 0.0 0.0
Cu 8.9485165 3.8350785000000003 37.77931399570999 0.0 0.0 0.0
Cu 7.670157000000001 2.556719 32.274737529336 0.0 0.0 0.0
Cu 8.9485165 3.8350785000000003 34.115369493532 0.0 0.0 0.0
Cu 7.670157000000001 2.556719 28.610793027157996 0.0 0.0 0.0
Cu 8.9485165 3.8350785000000003 30.443868080959994 0.0 0.0 0.0
Cu 7.670157000000001 2.556719 25.0 0.0 0.0 0.0
Cu 8.9485165 3.8350785000000003 26.777103296434 0.0 0.0 0.0
Cu 7.670157000000001 5.113438 39.613003726434 0.0 0.0 0.0
Cu 8.9485165 6.391797500000001 41.390107022868 0.0 0.0 0.0
Cu 7.670157000000001 5.113438 35.946238941908 0.0 0.0 0.0
Cu 8.9485165 6.391797500000001 37.77931399570999 0.0 0.0 0.0
Cu 7.670157000000001 5.113438 32.274737529336 0.0 0.0 0.0
Cu 8.9485165 6.391797500000001 34.115369493532 0.0 0.0 0.0
Cu 7.670157000000001 5.113438 28.610793027157996 0.0 0.0 0.0
Cu 8.9485165 6.391797500000001 30.443868080959994 0.0 0.0 0.0
Cu 7.670157000000001 5.113438 25.0 0.0 0.0 0.0
Cu 8.9485165 6.391797500000001 26.777103296434 0.0 0.0 0.0
Cu 7.670157000000001 7.670157000000001 39.613003726434 0.0 0.0 0.0
Cu 8.9485165 8.9485165 41.390107022868 0.0 0.0 0.0
Cu 7.670157000000001 7.670157000000001 35.946238941908 0.0 0.0 0.0
Cu 8.9485165 8.9485165 37.77931399570999 0.0 0.0 0.0
Cu 7.670157000000001 7.670157000000001 32.274737529336 0.0 0.0 0.0
Cu 8.9485165 8.9485165 34.115369493532 0.0 0.0 0.0
Cu 7.670157000000001 7.670157000000001 28.610793027157996 0.0 0.0 0.0
Cu 8.9485165 8.9485165 30.443868080959994 0.0 0.0 0.0
Cu 7.670157000000001 7.670157000000001 25.0 0.0 0.0 0.0
Cu 8.9485165 8.9485165 26.777103296434 0.0 0.0 0.0
Cu 7.670157000000001 10.226876 39.613003726434 0.0 0.0 0.0
Cu 8.9485165 11.505235500000001 41.390107022868 0.0 0.0 0.0
Cu 7.670157000000001 10.226876 35.946238941908 0.0 0.0 0.0
Cu 8.9485165 11.505235500000001 37.77931399570999 0.0 0.0 0.0
Cu 7.670157000000001 10.226876 32.274737529336 0.0 0.0 0.0
Cu 8.9485165 11.505235500000001 34.115369493532 0.0 0.0 0.0
Cu 7.670157000000001 10.226876 28.610793027157996 0.0 0.0 0.0
Cu 8.9485165 11.505235500000001 30.443868080959994 0.0 0.0 0.0
Cu 7.670157000000001 10.226876 25.0 0.0 0.0 0.0
Cu 8.9485165 11.505235500000001 26.777103296434 0.0 0.0 0.0
Cu 10.226876 0.0 39.613003726434 0.0 0.0 0.0
Cu 11.505235500000001 1.2783595 41.390107022868 0.0 0.0 0.0
Cu 10.226876 0.0 35.946238941908 0.0 0.0 0.0
Cu 11.505235500000001 1.2783595 37.77931399570999 0.0 0.0 0.0
Cu 10.226876 0.0 32.274737529336 0.0 0.0 0.0
Cu 11.505235500000001 1.2783595 34.115369493532 0.0 0.0 0.0
Cu 10.226876 0.0 28.610793027157996 0.0 0.0 0.0
Cu 11.505235500000001 1.2783595 30.443868080959994 0.0 0.0 0.0
Cu 10.226876 0.0 25.0 0.0 0.0 0.0
Cu 11.505235500000001 1.2783595 26.777103296434 0.0 0.0 0.0
Cu 10.226876 2.556719 39.613003726434 0.0 0.0 0.0
Cu 11.505235500000001 3.8350785000000003 41.390107022868 0.0 0.0 0.0
Cu 10.226876 2.556719 35.946238941908 0.0 0.0 0.0
Cu 11.505235500000001 3.8350785000000003 37.77931399570999 0.0 0.0 0.0
Cu 10.226876 2.556719 32.274737529336 0.0 0.0 0.0
Cu 11.505235500000001 3.8350785000000003 34.115369493532 0.0 0.0 0.0
Cu 10.226876 2.556719 28.610793027157996 0.0 0.0 0.0
Cu 11.505235500000001 3.8350785000000003 30.443868080959994 0.0 0.0 0.0
Cu 10.226876 2.556719 25.0 0.0 0.0 0.0
Cu 11.505235500000001 3.8350785000000003 26.777103296434 0.0 0.0 0.0
Cu 10.226876 5.113438 39.613003726434 0.0 0.0 0.0
Cu 11.505235500000001 6.391797500000001 41.390107022868 0.0 0.0 0.0
Cu 10.226876 5.113438 35.946238941908 0.0 0.0 0.0
Cu 11.505235500000001 6.391797500000001 37.77931399570999 0.0 0.0 0.0
Cu 10.226876 5.113438 32.274737529336 0.0 0.0 0.0
Cu 11.505235500000001 6.391797500000001 34.115369493532 0.0 0.0 0.0
Cu 10.226876 5.113438 28.610793027157996 0.0 0.0 0.0
Cu 11.505235500000001 6.391797500000001 30.443868080959994 0.0 0.0 0.0
Cu 10.226876 5.113438 25.0 0.0 0.0 0.0
Cu 11.505235500000001 6.391797500000001 26.777103296434 0.0 0.0 0.0
Cu 10.226876 7.670157000000001 39.613003726434 0.0 0.0 0.0
Cu 11.505235500000001 8.9485165 41.390107022868 0.0 0.0 0.0
Cu 10.226876 7.670157000000001 35.946238941908 0.0 0.0 0.0
Cu 11.505235500000001 8.9485165 37.77931399570999 0.0 0.0 0.0
Cu 10.226876 7.670157000000001 32.274737529336 0.0 0.0 0.0
Cu 11.505235500000001 8.9485165 34.115369493532 0.0 0.0 0.0
Cu 10.226876 7.670157000000001 28.610793027157996 0.0 0.0 0.0
Cu 11.505235500000001 8.9485165 30.443868080959994 0.0 0.0 0.0
Cu 10.226876 7.670157000000001 25.0 0.0 0.0 0.0
Cu 11.505235500000001 8.9485165 26.777103296434 0.0 0.0 0.0
Cu 10.226876 10.226876 39.613003726434 0.0 0.0 0.0
Cu 11.505235500000001 11.505235500000001 41.390107022868 0.0 0.0 0.0
Cu 10.226876 10.226876 35.946238941908 0.0 0.0 0.0
Cu 11.505235500000001 11.505235500000001 37.77931399570999 0.0 0.0 0.0
Cu 10.226876 10.226876 32.274737529336 0.0 0.0 0.0
Cu 11.505235500000001 11.505235500000001 34.115369493532 0.0 0.0 0.0
Cu 10.226876 10.226876 28.610793027157996 0.0 0.0 0.0
Cu 11.505235500000001 11.505235500000001 30.443868080959994 0.0 0.0 0.0
Cu 10.226876 10.226876 25.0 0.0 0.0 0.0
Cu 11.505235500000001 11.505235500000001 26.777103296434 0.0 0.0 0.0
