# total energy = -838.9537670840201 ev

CRYSTAL
PRIMVEC
15.355236719999999 0.0 0.0
0.0 18.039289999999998 0.0
0.0 0.0 58.881634538709434
PRIMCOORD
240 1 
Cu 0.0 0.0 31.365934404216937 0.0 0.0 0.0
Cu 0.0 0.0 33.881634538709434 0.0 0.0 0.0
Cu 1.27960306 1.8039289999999997 32.70957931511398 0.0 0.0 0.0
Cu 1.27960306 1.8039289999999997 30.094397699819858 0.0 0.0 0.0
Cu 0.0 0.0 26.172055223595457 0.0 0.0 0.0
Cu 0.0 0.0 28.787236838889577 0.0 0.0 0.0
Cu 1.27960306 1.8039289999999997 27.515700134492498 0.0 0.0 0.0
Cu 1.27960306 1.8039289999999997 25.0 0.0 0.0 0.0
Cu 0.0 3.607858 31.365934404216937 0.0 0.0 0.0
Cu 0.0 3.607858 33.881634538709434 0.0 0.0 0.0
Cu 1.27960306 5.4117869999999995 32.70957931511398 0.0 0.0 0.0
Cu 1.27960306 5.4117869999999995 30.094397699819858 0.0 0.0 0.0
Cu 0.0 3.607858 26.172055223595457 0.0 0.0 0.0
Cu 0.0 3.607858 28.787236838889577 0.0 0.0 0.0
Cu 1.27960306 5.4117869999999995 27.515700134492498 0.0 0.0 0.0
Cu 1.27960306 5.4117869999999995 25.0 0.0 0.0 0.0
Cu 0.0 7.215716 31.365934404216937 0.0 0.0 0.0
Cu 0.0 7.215716 33.881634538709434 0.0 0.0 0.0
Cu 1.27960306 9.019644999999999 32.70957931511398 0.0 0.0 0.0
Cu 1.27960306 9.019644999999999 30.094397699819858 0.0 0.0 0.0
Cu 0.0 7.215716 26.172055223595457 0.0 0.0 0.0
Cu 0.0 7.215716 28.787236838889577 0.0 0.0 0.0
Cu 1.27960306 9.019644999999999 27.515700134492498 0.0 0.0 0.0
Cu 1.27960306 9.019644999999999 25.0 0.0 0.0 0.0
Cu 0.0 10.823573999999999 31.365934404216937 0.0 0.0 0.0
Cu 0.0 10.823573999999999 33.881634538709434 0.0 0.0 0.0
Cu 1.27960306 12.627502999999999 32.70957931511398 0.0 0.0 0.0
Cu 1.27960306 12.627502999999999 30.094397699819858 0.0 0.0 0.0
Cu 0.0 10.823573999999999 26.172055223595457 0.0 0.0 0.0
Cu 0.0 10.823573999999999 28.787236838889577 0.0 0.0 0.0
Cu 1.27960306 12.627502999999999 27.515700134492498 0.0 0.0 0.0
Cu 1.27960306 12.627502999999999 25.0 0.0 0.0 0.0
Cu 0.0 14.431432 31.365934404216937 0.0 0.0 0.0
Cu 0.0 14.431432 33.881634538709434 0.0 0.0 0.0
Cu 1.27960306 16.235360999999997 32.70957931511398 0.0 0.0 0.0
Cu 1.27960306 16.235360999999997 30.094397699819858 0.0 0.0 0.0
Cu 0.0 14.431432 26.172055223595457 0.0 0.0 0.0
Cu 0.0 14.431432 28.787236838889577 0.0 0.0 0.0
Cu 1.27960306 16.235360999999997 27.515700134492498 0.0 0.0 0.0
Cu 1.27960306 16.235360999999997 25.0 0.0 0.0 0.0
Cu 2.55920612 0.0 31.365934404216937 0.0 0.0 0.0
Cu 2.55920612 0.0 33.881634538709434 0.0 0.0 0.0
Cu 3.8388091799999997 1.8039289999999997 32.70957931511398 0.0 0.0 0.0
Cu 3.8388091799999997 1.8039289999999997 30.094397699819858 0.0 0.0 0.0
Cu 2.55920612 0.0 26.172055223595457 0.0 0.0 0.0
Cu 2.55920612 0.0 28.787236838889577 0.0 0.0 0.0
Cu 3.8388091799999997 1.8039289999999997 27.515700134492498 0.0 0.0 0.0
Cu 3.8388091799999997 1.8039289999999997 25.0 0.0 0.0 0.0
Cu 2.55920612 3.607858 31.365934404216937 0.0 0.0 0.0
Cu 2.55920612 3.607858 33.881634538709434 0.0 0.0 0.0
Cu 3.8388091799999997 5.4117869999999995 32.70957931511398 0.0 0.0 0.0
Cu 3.8388091799999997 5.4117869999999995 30.094397699819858 0.0 0.0 0.0
Cu 2.55920612 3.607858 26.172055223595457 0.0 0.0 0.0
Cu 2.55920612 3.607858 28.787236838889577 0.0 0.0 0.0
Cu 3.8388091799999997 5.4117869999999995 27.515700134492498 0.0 0.0 0.0
Cu 3.8388091799999997 5.4117869999999995 25.0 0.0 0.0 0.0
Cu 2.55920612 7.215716 31.365934404216937 0.0 0.0 0.0
Cu 2.55920612 7.215716 33.881634538709434 0.0 0.0 0.0
Cu 3.8388091799999997 9.019644999999999 32.70957931511398 0.0 0.0 0.0
Cu 3.8388091799999997 9.019644999999999 30.094397699819858 0.0 0.0 0.0
Cu 2.55920612 7.215716 26.172055223595457 0.0 0.0 0.0
Cu 2.55920612 7.215716 28.787236838889577 0.0 0.0 0.0
Cu 3.8388091799999997 9.019644999999999 27.515700134492498 0.0 0.0 0.0
Cu 3.8388091799999997 9.019644999999999 25.0 0.0 0.0 0.0
Cu 2.55920612 10.823573999999999 31.365934404216937 0.0 0.0 0.0
Cu 2.55920612 10.823573999999999 33.881634538709434 0.0 0.0 0.0
Cu 3.8388091799999997 12.627502999999999 32.70957931511398 0.0 0.0 0.0
Cu 3.8388091799999997 12.627502999999999 30.094397699819858 0.0 0.0 0.0
Cu 2.55920612 10.823573999999999 26.172055223595457 0.0 0.0 0.0
Cu 2.55920612 10.823573999999999 28.787236838889577 0.0 0.0 0.0
Cu 3.8388091799999997 12.627502999999999 27.515700134492498 0.0 0.0 0.0
Cu 3.8388091799999997 12.627502999999999 25.0 0.0 0.0 0.0
Cu 2.55920612 14.431432 31.365934404216937 0.0 0.0 0.0
Cu 2.55920612 14.431432 33.881634538709434 0.0 0.0 0.0
Cu 3.8388091799999997 16.235360999999997 32.70957931511398 0.0 0.0 0.0
Cu 3.8388091799999997 16.235360999999997 30.094397699819858 0.0 0.0 0.0
Cu 2.55920612 14.431432 26.172055223595457 0.0 0.0 0.0
Cu 2.55920612 14.431432 28.787236838889577 0.0 0.0 0.0
Cu 3.8388091799999997 16.235360999999997 27.515700134492498 0.0 0.0 0.0
Cu 3.8388091799999997 16.235360999999997 25.0 0.0 0.0 0.0
Cu 5.11841224 0.0 31.365934404216937 0.0 0.0 0.0
Cu 5.11841224 0.0 33.881634538709434 0.0 0.0 0.0
Cu 6.398015299999999 1.8039289999999997 32.70957931511398 0.0 0.0 0.0
Cu 6.398015299999999 1.8039289999999997 30.094397699819858 0.0 0.0 0.0
Cu 5.11841224 0.0 26.172055223595457 0.0 0.0 0.0
Cu 5.11841224 0.0 28.787236838889577 0.0 0.0 0.0
Cu 6.398015299999999 1.8039289999999997 27.515700134492498 0.0 0.0 0.0
Cu 6.398015299999999 1.8039289999999997 25.0 0.0 0.0 0.0
Cu 5.11841224 3.607858 31.365934404216937 0.0 0.0 0.0
Cu 5.11841224 3.607858 33.881634538709434 0.0 0.0 0.0
Cu 6.398015299999999 5.4117869999999995 32.70957931511398 0.0 0.0 0.0
Cu 6.398015299999999 5.4117869999999995 30.094397699819858 0.0 0.0 0.0
Cu 5.11841224 3.607858 26.172055223595457 0.0 0.0 0.0
Cu 5.11841224 3.607858 28.787236838889577 0.0 0.0 0.0
Cu 6.398015299999999 5.4117869999999995 27.515700134492498 0.0 0.0 0.0
Cu 6.398015299999999 5.4117869999999995 25.0 0.0 0.0 0.0
Cu 5.11841224 7.215716 31.365934404216937 0.0 0.0 0.0
Cu 5.11841224 7.215716 33.881634538709434 0.0 0.0 0.0
Cu 6.398015299999999 9.019644999999999 32.70957931511398 0.0 0.0 0.0
Cu 6.398015299999999 9.019644999999999 30.094397699819858 0.0 0.0 0.0
Cu 5.11841224 7.215716 26.172055223595457 0.0 0.0 0.0
Cu 5.11841224 7.215716 28.787236838889577 0.0 0.0 0.0
Cu 6.398015299999999 9.019644999999999 27.515700134492498 0.0 0.0 0.0
Cu 6.398015299999999 9.019644999999999 25.0 0.0 0.0 0.0
Cu 5.11841224 10.823573999999999 31.365934404216937 0.0 0.0 0.0
Cu 5.11841224 10.823573999999999 33.881634538709434 0.0 0.0 0.0
Cu 6.398015299999999 12.627502999999999 32.70957931511398 0.0 0.0 0.0
Cu 6.398015299999999 12.627502999999999 30.094397699819858 0.0 0.0 0.0
Cu 5.11841224 10.823573999999999 26.172055223595457 0.0 0.0 0.0
Cu 5.11841224 10.823573999999999 28.787236838889577 0.0 0.0 0.0
Cu 6.398015299999999 12.627502999999999 27.515700134492498 0.0 0.0 0.0
Cu 6.398015299999999 12.627502999999999 25.0 0.0 0.0 0.0
Cu 5.11841224 14.431432 31.365934404216937 0.0 0.0 0.0
Cu 5.11841224 14.431432 33.881634538709434 0.0 0.0 0.0
Cu 6.398015299999999 16.235360999999997 32.70957931511398 0.0 0.0 0.0
Cu 6.398015299999999 16.235360999999997 30.094397699819858 0.0 0.0 0.0
Cu 5.11841224 14.431432 26.172055223595457 0.0 0.0 0.0
Cu 5.11841224 14.431432 28.787236838889577 0.0 0.0 0.0
Cu 6.398015299999999 16.235360999999997 27.515700134492498 0.0 0.0 0.0
Cu 6.398015299999999 16.235360999999997 25.0 0.0 0.0 0.0
Cu 7.677618359999999 0.0 31.365934404216937 0.0 0.0 0.0
Cu 7.677618359999999 0.0 33.881634538709434 0.0 0.0 0.0
Cu 8.95722142 1.8039289999999997 32.70957931511398 0.0 0.0 0.0
Cu 8.95722142 1.8039289999999997 30.094397699819858 0.0 0.0 0.0
Cu 7.677618359999999 0.0 26.172055223595457 0.0 0.0 0.0
Cu 7.677618359999999 0.0 28.787236838889577 0.0 0.0 0.0
Cu 8.95722142 1.8039289999999997 27.515700134492498 0.0 0.0 0.0
Cu 8.95722142 1.8039289999999997 25.0 0.0 0.0 0.0
Cu 7.677618359999999 3.607858 31.365934404216937 0.0 0.0 0.0
Cu 7.677618359999999 3.607858 33.881634538709434 0.0 0.0 0.0
Cu 8.95722142 5.4117869999999995 32.70957931511398 0.0 0.0 0.0
Cu 8.95722142 5.4117869999999995 30.094397699819858 0.0 0.0 0.0
Cu 7.677618359999999 3.607858 26.172055223595457 0.0 0.0 0.0
Cu 7.677618359999999 3.607858 28.787236838889577 0.0 0.0 0.0
Cu 8.95722142 5.4117869999999995 27.515700134492498 0.0 0.0 0.0
Cu 8.95722142 5.4117869999999995 25.0 0.0 0.0 0.0
Cu 7.677618359999999 7.215716 31.365934404216937 0.0 0.0 0.0
Cu 7.677618359999999 7.215716 33.881634538709434 0.0 0.0 0.0
Cu 8.95722142 9.019644999999999 32.70957931511398 0.0 0.0 0.0
Cu 8.95722142 9.019644999999999 30.094397699819858 0.0 0.0 0.0
Cu 7.677618359999999 7.215716 26.172055223595457 0.0 0.0 0.0
Cu 7.677618359999999 7.215716 28.787236838889577 0.0 0.0 0.0
Cu 8.95722142 9.019644999999999 27.515700134492498 0.0 0.0 0.0
Cu 8.95722142 9.019644999999999 25.0 0.0 0.0 0.0
Cu 7.677618359999999 10.823573999999999 31.365934404216937 0.0 0.0 0.0
Cu 7.677618359999999 10.823573999999999 33.881634538709434 0.0 0.0 0.0
Cu 8.95722142 12.627502999999999 32.70957931511398 0.0 0.0 0.0
Cu 8.95722142 12.627502999999999 30.094397699819858 0.0 0.0 0.0
Cu 7.677618359999999 10.823573999999999 26.172055223595457 0.0 0.0 0.0
Cu 7.677618359999999 10.823573999999999 28.787236838889577 0.0 0.0 0.0
Cu 8.95722142 12.627502999999999 27.515700134492498 0.0 0.0 0.0
Cu 8.95722142 12.627502999999999 25.0 0.0 0.0 0.0
Cu 7.677618359999999 14.431432 31.365934404216937 0.0 0.0 0.0
Cu 7.677618359999999 14.431432 33.881634538709434 0.0 0.0 0.0
Cu 8.95722142 16.235360999999997 32.70957931511398 0.0 0.0 0.0
Cu 8.95722142 16.235360999999997 30.094397699819858 0.0 0.0 0.0
Cu 7.677618359999999 14.431432 26.172055223595457 0.0 0.0 0.0
Cu 7.677618359999999 14.431432 28.787236838889577 0.0 0.0 0.0
Cu 8.95722142 16.235360999999997 27.515700134492498 0.0 0.0 0.0
Cu 8.95722142 16.235360999999997 25.0 0.0 0.0 0.0
Cu 10.23682448 0.0 31.365934404216937 0.0 0.0 0.0
Cu 10.23682448 0.0 33.881634538709434 0.0 0.0 0.0
Cu 11.516427539999999 1.8039289999999997 32.70957931511398 0.0 0.0 0.0
Cu 11.516427539999999 1.8039289999999997 30.094397699819858 0.0 0.0 0.0
Cu 10.23682448 0.0 26.172055223595457 0.0 0.0 0.0
Cu 10.23682448 0.0 28.787236838889577 0.0 0.0 0.0
Cu 11.516427539999999 1.8039289999999997 27.515700134492498 0.0 0.0 0.0
Cu 11.516427539999999 1.8039289999999997 25.0 0.0 0.0 0.0
Cu 10.23682448 3.607858 31.365934404216937 0.0 0.0 0.0
Cu 10.23682448 3.607858 33.881634538709434 0.0 0.0 0.0
Cu 11.516427539999999 5.4117869999999995 32.70957931511398 0.0 0.0 0.0
Cu 11.516427539999999 5.4117869999999995 30.094397699819858 0.0 0.0 0.0
Cu 10.23682448 3.607858 26.172055223595457 0.0 0.0 0.0
Cu 10.23682448 3.607858 28.787236838889577 0.0 0.0 0.0
Cu 11.516427539999999 5.4117869999999995 27.515700134492498 0.0 0.0 0.0
Cu 11.516427539999999 5.4117869999999995 25.0 0.0 0.0 0.0
Cu 10.23682448 7.215716 31.365934404216937 0.0 0.0 0.0
Cu 10.23682448 7.215716 33.881634538709434 0.0 0.0 0.0
Cu 11.516427539999999 9.019644999999999 32.70957931511398 0.0 0.0 0.0
Cu 11.516427539999999 9.019644999999999 30.094397699819858 0.0 0.0 0.0
Cu 10.23682448 7.215716 26.172055223595457 0.0 0.0 0.0
Cu 10.23682448 7.215716 28.787236838889577 0.0 0.0 0.0
Cu 11.516427539999999 9.019644999999999 27.515700134492498 0.0 0.0 0.0
Cu 11.516427539999999 9.019644999999999 25.0 0.0 0.0 0.0
Cu 10.23682448 10.823573999999999 31.365934404216937 0.0 0.0 0.0
Cu 10.23682448 10.823573999999999 33.881634538709434 0.0 0.0 0.0
Cu 11.516427539999999 12.627502999999999 32.70957931511398 0.0 0.0 0.0
Cu 11.516427539999999 12.627502999999999 30.094397699819858 0.0 0.0 0.0
Cu 10.23682448 10.823573999999999 26.172055223595457 0.0 0.0 0.0
Cu 10.23682448 10.823573999999999 28.787236838889577 0.0 0.0 0.0
Cu 11.516427539999999 12.627502999999999 27.515700134492498 0.0 0.0 0.0
Cu 11.516427539999999 12.627502999999999 25.0 0.0 0.0 0.0
Cu 10.23682448 14.431432 31.365934404216937 0.0 0.0 0.0
Cu 10.23682448 14.431432 33.881634538709434 0.0 0.0 0.0
Cu 11.516427539999999 16.235360999999997 32.70957931511398 0.0 0.0 0.0
Cu 11.516427539999999 16.235360999999997 30.094397699819858 0.0 0.0 0.0
Cu 10.23682448 14.431432 26.172055223595457 0.0 0.0 0.0
Cu 10.23682448 14.431432 28.787236838889577 0.0 0.0 0.0
Cu 11.516427539999999 16.235360999999997 27.515700134492498 0.0 0.0 0.0
Cu 11.516427539999999 16.235360999999997 25.0 0.0 0.0 0.0
Cu 12.796030599999998 0.0 31.365934404216937 0.0 0.0 0.0
Cu 12.796030599999998 0.0 33.881634538709434 0.0 0.0 0.0
Cu 14.075633659999998 1.8039289999999997 32.70957931511398 0.0 0.0 0.0
Cu 14.075633659999998 1.8039289999999997 30.094397699819858 0.0 0.0 0.0
Cu 12.796030599999998 0.0 26.172055223595457 0.0 0.0 0.0
Cu 12.796030599999998 0.0 28.787236838889577 0.0 0.0 0.0
Cu 14.075633659999998 1.8039289999999997 27.515700134492498 0.0 0.0 0.0
Cu 14.075633659999998 1.8039289999999997 25.0 0.0 0.0 0.0
Cu 12.796030599999998 3.607858 31.365934404216937 0.0 0.0 0.0
Cu 12.796030599999998 3.607858 33.881634538709434 0.0 0.0 0.0
Cu 14.075633659999998 5.4117869999999995 32.70957931511398 0.0 0.0 0.0
Cu 14.075633659999998 5.4117869999999995 30.094397699819858 0.0 0.0 0.0
Cu 12.796030599999998 3.607858 26.172055223595457 0.0 0.0 0.0
Cu 12.796030599999998 3.607858 28.787236838889577 0.0 0.0 0.0
Cu 14.075633659999998 5.4117869999999995 27.515700134492498 0.0 0.0 0.0
Cu 14.075633659999998 5.4117869999999995 25.0 0.0 0.0 0.0
Cu 12.796030599999998 7.215716 31.365934404216937 0.0 0.0 0.0
Cu 12.796030599999998 7.215716 33.881634538709434 0.0 0.0 0.0
Cu 14.075633659999998 9.019644999999999 32.70957931511398 0.0 0.0 0.0
Cu 14.075633659999998 9.019644999999999 30.094397699819858 0.0 0.0 0.0
Cu 12.796030599999998 7.215716 26.172055223595457 0.0 0.0 0.0
Cu 12.796030599999998 7.215716 28.787236838889577 0.0 0.0 0.0
Cu 14.075633659999998 9.019644999999999 27.515700134492498 0.0 0.0 0.0
Cu 14.075633659999998 9.019644999999999 25.0 0.0 0.0 0.0
Cu 12.796030599999998 10.823573999999999 31.365934404216937 0.0 0.0 0.0
Cu 12.796030599999998 10.823573999999999 33.881634538709434 0.0 0.0 0.0
Cu 14.075633659999998 12.627502999999999 32.70957931511398 0.0 0.0 0.0
Cu 14.075633659999998 12.627502999999999 30.094397699819858 0.0 0.0 0.0
Cu 12.796030599999998 10.823573999999999 26.172055223595457 0.0 0.0 0.0
Cu 12.796030599999998 10.823573999999999 28.787236838889577 0.0 0.0 0.0
Cu 14.075633659999998 12.627502999999999 27.515700134492498 0.0 0.0 0.0
Cu 14.075633659999998 12.627502999999999 25.0 0.0 0.0 0.0
Cu 12.796030599999998 14.431432 31.365934404216937 0.0 0.0 0.0
Cu 12.796030599999998 14.431432 33.881634538709434 0.0 0.0 0.0
Cu 14.075633659999998 16.235360999999997 32.70957931511398 0.0 0.0 0.0
Cu 14.075633659999998 16.235360999999997 30.094397699819858 0.0 0.0 0.0
Cu 12.796030599999998 14.431432 26.172055223595457 0.0 0.0 0.0
Cu 12.796030599999998 14.431432 28.787236838889577 0.0 0.0 0.0
Cu 14.075633659999998 16.235360999999997 27.515700134492498 0.0 0.0 0.0
Cu 14.075633659999998 16.235360999999997 25.0 0.0 0.0 0.0
