# total energy = -813.1060656495098 ev

CRYSTAL
PRIMVEC
12.788385 0.0 0.0
-6.394194989816119 11.075069984297244 0.0
0.0 0.0 66.71440595019999
PRIMCOORD
225 1 
Cu 1.2788396128509247 0.7383372606151506 27.085081263131997 0.0 0.0 0.0
Cu -1.6108141485e-06 1.476676736244298 24.999999999999993 0.0 0.0 0.0
Cu 0.0 0.0 29.173320088615995 0.0 0.0 0.0
Cu 1.2788396128509247 0.7383372606151506 33.357202975099995 0.0 0.0 0.0
Cu -1.6108141485e-06 1.476676736244298 31.263701545695994 0.0 0.0 0.0
Cu 0.0 0.0 35.450704404503995 0.0 0.0 0.0
Cu 1.2788396128509247 0.7383372606151506 39.629324687068 0.0 0.0 0.0
Cu -1.6108141485e-06 1.476676736244298 37.541085861583994 0.0 0.0 0.0
Cu 0.0 0.0 41.71440595019999 0.0 0.0 0.0
Cu 6.14887701e-07 2.9533512574745995 27.085081263131997 0.0 0.0 0.0
Cu -1.2788406087773723 3.691690733103747 24.999999999999993 0.0 0.0 0.0
Cu -1.2788389979632238 2.2150139968594487 29.173320088615995 0.0 0.0 0.0
Cu 6.14887701e-07 2.9533512574745995 33.357202975099995 0.0 0.0 0.0
Cu -1.2788406087773723 3.691690733103747 31.263701545695994 0.0 0.0 0.0
Cu -1.2788389979632238 2.2150139968594487 35.450704404503995 0.0 0.0 0.0
Cu 6.14887701e-07 2.9533512574745995 39.629324687068 0.0 0.0 0.0
Cu -1.2788406087773723 3.691690733103747 37.541085861583994 0.0 0.0 0.0
Cu -1.2788389979632238 2.2150139968594487 41.71440595019999 0.0 0.0 0.0
Cu -1.2788383830755228 5.168365254334048 27.085081263131997 0.0 0.0 0.0
Cu -2.557679606740596 5.906704729963195 24.999999999999993 0.0 0.0 0.0
Cu -2.5576779959264475 4.430027993718897 29.173320088615995 0.0 0.0 0.0
Cu -1.2788383830755228 5.168365254334048 33.357202975099995 0.0 0.0 0.0
Cu -2.557679606740596 5.906704729963195 31.263701545695994 0.0 0.0 0.0
Cu -2.5576779959264475 4.430027993718897 35.450704404503995 0.0 0.0 0.0
Cu -1.2788383830755228 5.168365254334048 39.629324687068 0.0 0.0 0.0
Cu -2.557679606740596 5.906704729963195 37.541085861583994 0.0 0.0 0.0
Cu -2.5576779959264475 4.430027993718897 41.71440595019999 0.0 0.0 0.0
Cu -2.5576773810387468 7.383379251193496 27.085081263131997 0.0 0.0 0.0
Cu -3.83651860470382 8.121718726822644 24.999999999999993 0.0 0.0 0.0
Cu -3.8365169938896715 6.6450419905783455 29.173320088615995 0.0 0.0 0.0
Cu -2.5576773810387468 7.383379251193496 33.357202975099995 0.0 0.0 0.0
Cu -3.83651860470382 8.121718726822644 31.263701545695994 0.0 0.0 0.0
Cu -3.8365169938896715 6.6450419905783455 35.450704404503995 0.0 0.0 0.0
Cu -2.5576773810387468 7.383379251193496 39.629324687068 0.0 0.0 0.0
Cu -3.83651860470382 8.121718726822644 37.541085861583994 0.0 0.0 0.0
Cu -3.8365169938896715 6.6450419905783455 41.71440595019999 0.0 0.0 0.0
Cu -3.8365163790019703 9.598393248052945 27.085081263131997 0.0 0.0 0.0
Cu -5.115357602667044 10.336732723682093 24.999999999999993 0.0 0.0 0.0
Cu -5.115355991852895 8.860055987437795 29.173320088615995 0.0 0.0 0.0
Cu -3.8365163790019703 9.598393248052945 33.357202975099995 0.0 0.0 0.0
Cu -5.115357602667044 10.336732723682093 31.263701545695994 0.0 0.0 0.0
Cu -5.115355991852895 8.860055987437795 35.450704404503995 0.0 0.0 0.0
Cu -3.8365163790019703 9.598393248052945 39.629324687068 0.0 0.0 0.0
Cu -5.115357602667044 10.336732723682093 37.541085861583994 0.0 0.0 0.0
Cu -5.115355991852895 8.860055987437795 41.71440595019999 0.0 0.0 0.0
Cu 3.8365166128509247 0.7383372606151506 27.085081263131997 0.0 0.0 0.0
Cu 2.5576753891858517 1.476676736244298 24.999999999999993 0.0 0.0 0.0
Cu 2.557677 0.0 29.173320088615995 0.0 0.0 0.0
Cu 3.8365166128509247 0.7383372606151506 33.357202975099995 0.0 0.0 0.0
Cu 2.5576753891858517 1.476676736244298 31.263701545695994 0.0 0.0 0.0
Cu 2.557677 0.0 35.450704404503995 0.0 0.0 0.0
Cu 3.8365166128509247 0.7383372606151506 39.629324687068 0.0 0.0 0.0
Cu 2.5576753891858517 1.476676736244298 37.541085861583994 0.0 0.0 0.0
Cu 2.557677 0.0 41.71440595019999 0.0 0.0 0.0
Cu 2.5576776148877007 2.9533512574745995 27.085081263131997 0.0 0.0 0.0
Cu 1.2788363912226277 3.691690733103747 24.999999999999993 0.0 0.0 0.0
Cu 1.2788380020367762 2.2150139968594487 29.173320088615995 0.0 0.0 0.0
Cu 2.5576776148877007 2.9533512574745995 33.357202975099995 0.0 0.0 0.0
Cu 1.2788363912226277 3.691690733103747 31.263701545695994 0.0 0.0 0.0
Cu 1.2788380020367762 2.2150139968594487 35.450704404503995 0.0 0.0 0.0
Cu 2.5576776148877007 2.9533512574745995 39.629324687068 0.0 0.0 0.0
Cu 1.2788363912226277 3.691690733103747 37.541085861583994 0.0 0.0 0.0
Cu 1.2788380020367762 2.2150139968594487 41.71440595019999 0.0 0.0 0.0
Cu 1.2788386169244772 5.168365254334048 27.085081263131997 0.0 0.0 0.0
Cu -2.606740596e-06 5.906704729963195 24.999999999999993 0.0 0.0 0.0
Cu -9.959264475e-07 4.430027993718897 29.173320088615995 0.0 0.0 0.0
Cu 1.2788386169244772 5.168365254334048 33.357202975099995 0.0 0.0 0.0
Cu -2.606740596e-06 5.906704729963195 31.263701545695994 0.0 0.0 0.0
Cu -9.959264475e-07 4.430027993718897 35.450704404503995 0.0 0.0 0.0
Cu 1.2788386169244772 5.168365254334048 39.629324687068 0.0 0.0 0.0
Cu -2.606740596e-06 5.906704729963195 37.541085861583994 0.0 0.0 0.0
Cu -9.959264475e-07 4.430027993718897 41.71440595019999 0.0 0.0 0.0
Cu -3.810387468e-07 7.383379251193496 27.085081263131997 0.0 0.0 0.0
Cu -1.27884160470382 8.121718726822644 24.999999999999993 0.0 0.0 0.0
Cu -1.2788399938896715 6.6450419905783455 29.173320088615995 0.0 0.0 0.0
Cu -3.810387468e-07 7.383379251193496 33.357202975099995 0.0 0.0 0.0
Cu -1.27884160470382 8.121718726822644 31.263701545695994 0.0 0.0 0.0
Cu -1.2788399938896715 6.6450419905783455 35.450704404503995 0.0 0.0 0.0
Cu -3.810387468e-07 7.383379251193496 39.629324687068 0.0 0.0 0.0
Cu -1.27884160470382 8.121718726822644 37.541085861583994 0.0 0.0 0.0
Cu -1.2788399938896715 6.6450419905783455 41.71440595019999 0.0 0.0 0.0
Cu -1.2788393790019703 9.598393248052945 27.085081263131997 0.0 0.0 0.0
Cu -2.5576806026670433 10.336732723682093 24.999999999999993 0.0 0.0 0.0
Cu -2.557678991852895 8.860055987437795 29.173320088615995 0.0 0.0 0.0
Cu -1.2788393790019703 9.598393248052945 33.357202975099995 0.0 0.0 0.0
Cu -2.5576806026670433 10.336732723682093 31.263701545695994 0.0 0.0 0.0
Cu -2.557678991852895 8.860055987437795 35.450704404503995 0.0 0.0 0.0
Cu -1.2788393790019703 9.598393248052945 39.629324687068 0.0 0.0 0.0
Cu -2.5576806026670433 10.336732723682093 37.541085861583994 0.0 0.0 0.0
Cu -2.557678991852895 8.860055987437795 41.71440595019999 0.0 0.0 0.0
Cu 6.394193612850925 0.7383372606151506 27.085081263131997 0.0 0.0 0.0
Cu 5.115352389185851 1.476676736244298 24.999999999999993 0.0 0.0 0.0
Cu 5.115354 0.0 29.173320088615995 0.0 0.0 0.0
Cu 6.394193612850925 0.7383372606151506 33.357202975099995 0.0 0.0 0.0
Cu 5.115352389185851 1.476676736244298 31.263701545695994 0.0 0.0 0.0
Cu 5.115354 0.0 35.450704404503995 0.0 0.0 0.0
Cu 6.394193612850925 0.7383372606151506 39.629324687068 0.0 0.0 0.0
Cu 5.115352389185851 1.476676736244298 37.541085861583994 0.0 0.0 0.0
Cu 5.115354 0.0 41.71440595019999 0.0 0.0 0.0
Cu 5.115354614887702 2.9533512574745995 27.085081263131997 0.0 0.0 0.0
Cu 3.836513391222628 3.691690733103747 24.999999999999993 0.0 0.0 0.0
Cu 3.8365150020367764 2.2150139968594487 29.173320088615995 0.0 0.0 0.0
Cu 5.115354614887702 2.9533512574745995 33.357202975099995 0.0 0.0 0.0
Cu 3.836513391222628 3.691690733103747 31.263701545695994 0.0 0.0 0.0
Cu 3.8365150020367764 2.2150139968594487 35.450704404503995 0.0 0.0 0.0
Cu 5.115354614887702 2.9533512574745995 39.629324687068 0.0 0.0 0.0
Cu 3.836513391222628 3.691690733103747 37.541085861583994 0.0 0.0 0.0
Cu 3.8365150020367764 2.2150139968594487 41.71440595019999 0.0 0.0 0.0
Cu 3.836515616924477 5.168365254334048 27.085081263131997 0.0 0.0 0.0
Cu 2.557674393259404 5.906704729963195 24.999999999999993 0.0 0.0 0.0
Cu 2.5576760040735524 4.430027993718897 29.173320088615995 0.0 0.0 0.0
Cu 3.836515616924477 5.168365254334048 33.357202975099995 0.0 0.0 0.0
Cu 2.557674393259404 5.906704729963195 31.263701545695994 0.0 0.0 0.0
Cu 2.5576760040735524 4.430027993718897 35.450704404503995 0.0 0.0 0.0
Cu 3.836515616924477 5.168365254334048 39.629324687068 0.0 0.0 0.0
Cu 2.557674393259404 5.906704729963195 37.541085861583994 0.0 0.0 0.0
Cu 2.5576760040735524 4.430027993718897 41.71440595019999 0.0 0.0 0.0
Cu 2.557676618961253 7.383379251193496 27.085081263131997 0.0 0.0 0.0
Cu 1.27883539529618 8.121718726822644 24.999999999999993 0.0 0.0 0.0
Cu 1.2788370061103285 6.6450419905783455 29.173320088615995 0.0 0.0 0.0
Cu 2.557676618961253 7.383379251193496 33.357202975099995 0.0 0.0 0.0
Cu 1.27883539529618 8.121718726822644 31.263701545695994 0.0 0.0 0.0
Cu 1.2788370061103285 6.6450419905783455 35.450704404503995 0.0 0.0 0.0
Cu 2.557676618961253 7.383379251193496 39.629324687068 0.0 0.0 0.0
Cu 1.27883539529618 8.121718726822644 37.541085861583994 0.0 0.0 0.0
Cu 1.2788370061103285 6.6450419905783455 41.71440595019999 0.0 0.0 0.0
Cu 1.2788376209980297 9.598393248052945 27.085081263131997 0.0 0.0 0.0
Cu -3.6026670436e-06 10.336732723682093 24.999999999999993 0.0 0.0 0.0
Cu -1.9918528951e-06 8.860055987437795 29.173320088615995 0.0 0.0 0.0
Cu 1.2788376209980297 9.598393248052945 33.357202975099995 0.0 0.0 0.0
Cu -3.6026670436e-06 10.336732723682093 31.263701545695994 0.0 0.0 0.0
Cu -1.9918528951e-06 8.860055987437795 35.450704404503995 0.0 0.0 0.0
Cu 1.2788376209980297 9.598393248052945 39.629324687068 0.0 0.0 0.0
Cu -3.6026670436e-06 10.336732723682093 37.541085861583994 0.0 0.0 0.0
Cu -1.9918528951e-06 8.860055987437795 41.71440595019999 0.0 0.0 0.0
Cu 8.951870612850925 0.7383372606151506 27.085081263131997 0.0 0.0 0.0
Cu 7.673029389185851 1.476676736244298 24.999999999999993 0.0 0.0 0.0
Cu 7.673031 0.0 29.173320088615995 0.0 0.0 0.0
Cu 8.951870612850925 0.7383372606151506 33.357202975099995 0.0 0.0 0.0
Cu 7.673029389185851 1.476676736244298 31.263701545695994 0.0 0.0 0.0
Cu 7.673031 0.0 35.450704404503995 0.0 0.0 0.0
Cu 8.951870612850925 0.7383372606151506 39.629324687068 0.0 0.0 0.0
Cu 7.673029389185851 1.476676736244298 37.541085861583994 0.0 0.0 0.0
Cu 7.673031 0.0 41.71440595019999 0.0 0.0 0.0
Cu 7.673031614887702 2.9533512574745995 27.085081263131997 0.0 0.0 0.0
Cu 6.394190391222628 3.691690733103747 24.999999999999993 0.0 0.0 0.0
Cu 6.394192002036776 2.2150139968594487 29.173320088615995 0.0 0.0 0.0
Cu 7.673031614887702 2.9533512574745995 33.357202975099995 0.0 0.0 0.0
Cu 6.394190391222628 3.691690733103747 31.263701545695994 0.0 0.0 0.0
Cu 6.394192002036776 2.2150139968594487 35.450704404503995 0.0 0.0 0.0
Cu 7.673031614887702 2.9533512574745995 39.629324687068 0.0 0.0 0.0
Cu 6.394190391222628 3.691690733103747 37.541085861583994 0.0 0.0 0.0
Cu 6.394192002036776 2.2150139968594487 41.71440595019999 0.0 0.0 0.0
Cu 6.394192616924478 5.168365254334048 27.085081263131997 0.0 0.0 0.0
Cu 5.115351393259404 5.906704729963195 24.999999999999993 0.0 0.0 0.0
Cu 5.115353004073553 4.430027993718897 29.173320088615995 0.0 0.0 0.0
Cu 6.394192616924478 5.168365254334048 33.357202975099995 0.0 0.0 0.0
Cu 5.115351393259404 5.906704729963195 31.263701545695994 0.0 0.0 0.0
Cu 5.115353004073553 4.430027993718897 35.450704404503995 0.0 0.0 0.0
Cu 6.394192616924478 5.168365254334048 39.629324687068 0.0 0.0 0.0
Cu 5.115351393259404 5.906704729963195 37.541085861583994 0.0 0.0 0.0
Cu 5.115353004073553 4.430027993718897 41.71440595019999 0.0 0.0 0.0
Cu 5.115353618961253 7.383379251193496 27.085081263131997 0.0 0.0 0.0
Cu 3.83651239529618 8.121718726822644 24.999999999999993 0.0 0.0 0.0
Cu 3.8365140061103284 6.6450419905783455 29.173320088615995 0.0 0.0 0.0
Cu 5.115353618961253 7.383379251193496 33.357202975099995 0.0 0.0 0.0
Cu 3.83651239529618 8.121718726822644 31.263701545695994 0.0 0.0 0.0
Cu 3.8365140061103284 6.6450419905783455 35.450704404503995 0.0 0.0 0.0
Cu 5.115353618961253 7.383379251193496 39.629324687068 0.0 0.0 0.0
Cu 3.83651239529618 8.121718726822644 37.541085861583994 0.0 0.0 0.0
Cu 3.8365140061103284 6.6450419905783455 41.71440595019999 0.0 0.0 0.0
Cu 3.8365146209980296 9.598393248052945 27.085081263131997 0.0 0.0 0.0
Cu 2.5576733973329566 10.336732723682093 24.999999999999993 0.0 0.0 0.0
Cu 2.557675008147105 8.860055987437795 29.173320088615995 0.0 0.0 0.0
Cu 3.8365146209980296 9.598393248052945 33.357202975099995 0.0 0.0 0.0
Cu 2.5576733973329566 10.336732723682093 31.263701545695994 0.0 0.0 0.0
Cu 2.557675008147105 8.860055987437795 35.450704404503995 0.0 0.0 0.0
Cu 3.8365146209980296 9.598393248052945 39.629324687068 0.0 0.0 0.0
Cu 2.5576733973329566 10.336732723682093 37.541085861583994 0.0 0.0 0.0
Cu 2.557675008147105 8.860055987437795 41.71440595019999 0.0 0.0 0.0
Cu 11.509547612850925 0.7383372606151506 27.085081263131997 0.0 0.0 0.0
Cu 10.230706389185851 1.476676736244298 24.999999999999993 0.0 0.0 0.0
Cu 10.230708 0.0 29.173320088615995 0.0 0.0 0.0
Cu 11.509547612850925 0.7383372606151506 33.357202975099995 0.0 0.0 0.0
Cu 10.230706389185851 1.476676736244298 31.263701545695994 0.0 0.0 0.0
Cu 10.230708 0.0 35.450704404503995 0.0 0.0 0.0
Cu 11.509547612850925 0.7383372606151506 39.629324687068 0.0 0.0 0.0
Cu 10.230706389185851 1.476676736244298 37.541085861583994 0.0 0.0 0.0
Cu 10.230708 0.0 41.71440595019999 0.0 0.0 0.0
Cu 10.230708614887702 2.9533512574745995 27.085081263131997 0.0 0.0 0.0
Cu 8.951867391222628 3.691690733103747 24.999999999999993 0.0 0.0 0.0
Cu 8.951869002036776 2.2150139968594487 29.173320088615995 0.0 0.0 0.0
Cu 10.230708614887702 2.9533512574745995 33.357202975099995 0.0 0.0 0.0
Cu 8.951867391222628 3.691690733103747 31.263701545695994 0.0 0.0 0.0
Cu 8.951869002036776 2.2150139968594487 35.450704404503995 0.0 0.0 0.0
Cu 10.230708614887702 2.9533512574745995 39.629324687068 0.0 0.0 0.0
Cu 8.951867391222628 3.691690733103747 37.541085861583994 0.0 0.0 0.0
Cu 8.951869002036776 2.2150139968594487 41.71440595019999 0.0 0.0 0.0
Cu 8.951869616924478 5.168365254334048 27.085081263131997 0.0 0.0 0.0
Cu 7.673028393259404 5.906704729963195 24.999999999999993 0.0 0.0 0.0
Cu 7.673030004073553 4.430027993718897 29.173320088615995 0.0 0.0 0.0
Cu 8.951869616924478 5.168365254334048 33.357202975099995 0.0 0.0 0.0
Cu 7.673028393259404 5.906704729963195 31.263701545695994 0.0 0.0 0.0
Cu 7.673030004073553 4.430027993718897 35.450704404503995 0.0 0.0 0.0
Cu 8.951869616924478 5.168365254334048 39.629324687068 0.0 0.0 0.0
Cu 7.673028393259404 5.906704729963195 37.541085861583994 0.0 0.0 0.0
Cu 7.673030004073553 4.430027993718897 41.71440595019999 0.0 0.0 0.0
Cu 7.673030618961253 7.383379251193496 27.085081263131997 0.0 0.0 0.0
Cu 6.39418939529618 8.121718726822644 24.999999999999993 0.0 0.0 0.0
Cu 6.394191006110328 6.6450419905783455 29.173320088615995 0.0 0.0 0.0
Cu 7.673030618961253 7.383379251193496 33.357202975099995 0.0 0.0 0.0
Cu 6.39418939529618 8.121718726822644 31.263701545695994 0.0 0.0 0.0
Cu 6.394191006110328 6.6450419905783455 35.450704404503995 0.0 0.0 0.0
Cu 7.673030618961253 7.383379251193496 39.629324687068 0.0 0.0 0.0
Cu 6.39418939529618 8.121718726822644 37.541085861583994 0.0 0.0 0.0
Cu 6.394191006110328 6.6450419905783455 41.71440595019999 0.0 0.0 0.0
Cu 6.394191620998029 9.598393248052945 27.085081263131997 0.0 0.0 0.0
Cu 5.115350397332956 10.336732723682093 24.999999999999993 0.0 0.0 0.0
Cu 5.115352008147105 8.860055987437795 29.173320088615995 0.0 0.0 0.0
Cu 6.394191620998029 9.598393248052945 33.357202975099995 0.0 0.0 0.0
Cu 5.115350397332956 10.336732723682093 31.263701545695994 0.0 0.0 0.0
Cu 5.115352008147105 8.860055987437795 35.450704404503995 0.0 0.0 0.0
Cu 6.394191620998029 9.598393248052945 39.629324687068 0.0 0.0 0.0
Cu 5.115350397332956 10.336732723682093 37.541085861583994 0.0 0.0 0.0
Cu 5.115352008147105 8.860055987437795 41.71440595019999 0.0 0.0 0.0
