# total energy = -857.5998304246782 ev

CRYSTAL
PRIMVEC
14.465628 0.0 0.0
-5.424611995573969 12.129798487920787 0.0
0.0 -7.223669817e-06 65.25462782934521
PRIMCOORD
240 1 
Cu 1.808205208492088 0.8087023185362339 31.404339178134663 0.0 0.0 0.0
Cu 1.6092368258e-06 1.6137087063269433 29.766201894492475 0.0 0.0 0.0
Cu 1.8082013909772505 2.439780508637196 28.147828094783335 0.0 0.0 0.0
Cu -3.976551713e-07 3.225164930900412 26.463080041341595 0.0 0.0 0.0
Cu -1.8109757956e-06 0.0224818356371408 25.000000000000004 0.0 0.0 0.0
Cu 1.8082031009369948 3.2365826571870806 30.59458622104797 0.0 0.0 0.0
Cu 1.3097431532e-06 4.042741376460766 28.950788365084527 0.0 0.0 0.0
Cu -1.021018378e-07 0.8280902309122897 27.32911526036529 0.0 0.0 0.0
Cu 1.8082014913531959 1.625685311454486 25.694341973988298 0.0 0.0 0.0
Cu -2.98951278e-07 2.424629940635451 32.21008121540516 0.0 0.0 0.0
Cu 1.8082052095320105 0.8002671624598545 39.56028585535691 0.0 0.0 0.0
Cu -1.970129561e-07 1.5978622430020508 37.925512568979926 0.0 0.0 0.0
Cu 1.8082013926173963 2.426477260093836 36.30383946426068 0.0 0.0 0.0
Cu -3.985764452e-07 3.2326359793675215 34.66004160829725 0.0 0.0 0.0
Cu -1.635161e-10 0.0013225332788895 33.04454661394006 0.0 0.0 0.0
Cu 1.8082031000157206 3.2440537056541916 38.79154778800362 0.0 0.0 0.0
Cu 1.3113832994e-06 4.029438127917406 37.106799734561875 0.0 0.0 0.0
Cu -1.9083516197e-06 0.8122437675873972 35.48842593485274 0.0 0.0 0.0
Cu 1.8082014923931184 1.6172501553781065 33.85028865121055 0.0 0.0 0.0
Cu 1.5118610015e-06 2.4034706382771995 40.25462782934521 0.0 0.0 0.0
Cu 1.2099674318e-06 4.851968481176496 31.404339178134663 0.0 0.0 0.0
Cu -1.8082023892878305 5.656974868967206 29.766201894492475 0.0 0.0 0.0
Cu -2.6075474058e-06 6.483046671277458 28.147828094783335 0.0 0.0 0.0
Cu -1.8082043961798275 7.2684310935406735 26.463080041341595 0.0 0.0 0.0
Cu -1.8082058095004518 4.065747998277403 25.000000000000004 0.0 0.0 0.0
Cu -8.975876615e-07 7.279848819827343 30.59458622104797 0.0 0.0 0.0
Cu -1.808202688781503 8.086007539101029 28.950788365084527 0.0 0.0 0.0
Cu -1.8082041006264942 4.871356393552552 27.32911526036529 0.0 0.0 0.0
Cu -2.5071714604e-06 5.668951474094748 25.694341973988298 0.0 0.0 0.0
Cu -1.8082042974759343 6.467896103275713 32.21008121540516 0.0 0.0 0.0
Cu 1.2110073542e-06 4.8435333251001165 39.56028585535691 0.0 0.0 0.0
Cu -1.8082041955376125 5.641128405642313 37.925512568979926 0.0 0.0 0.0
Cu -2.60590726e-06 6.469743422734098 36.30383946426068 0.0 0.0 0.0
Cu -1.8082043971011015 7.275902142007784 34.66004160829725 0.0 0.0 0.0
Cu -1.8082039986881724 4.044588695919152 33.04454661394006 0.0 0.0 0.0
Cu -8.985089357e-07 7.287319868294453 38.79154778800362 0.0 0.0 0.0
Cu -1.808202687141357 8.072704290557668 37.106799734561875 0.0 0.0 0.0
Cu -1.808205906876276 4.85550993022766 35.48842593485274 0.0 0.0 0.0
Cu -2.5061315378e-06 5.660516318018368 33.85028865121055 0.0 0.0 0.0
Cu -1.8082024866636548 6.446736800917462 40.25462782934521 0.0 0.0 0.0
Cu -1.8082027885572245 8.895234643816758 31.404339178134663 0.0 0.0 0.0
Cu -3.6164063878124866 9.700241031607467 29.766201894492475 0.0 0.0 0.0
Cu -1.808206606072062 10.526312833917721 28.147828094783335 0.0 0.0 0.0
Cu -3.616408394704484 11.311697256180937 26.463080041341595 0.0 0.0 0.0
Cu -3.616409808025108 8.109014160917665 25.000000000000004 0.0 0.0 0.0
Cu -1.8082048961123178 11.323114982467605 30.59458622104797 0.0 0.0 0.0
Cu -3.6164066873061596 12.12927370174129 28.950788365084527 0.0 0.0 0.0
Cu -3.6164080991511502 8.914622556192814 27.32911526036529 0.0 0.0 0.0
Cu -1.8082065056961167 9.71221763673501 25.694341973988298 0.0 0.0 0.0
Cu -3.6164082960005905 10.511162265915974 32.21008121540516 0.0 0.0 0.0
Cu -1.8082027875173021 8.88679948774038 39.56028585535691 0.0 0.0 0.0
Cu -3.6164081940622688 9.684394568282576 37.925512568979926 0.0 0.0 0.0
Cu -1.8082066044319163 10.51300958537436 36.30383946426068 0.0 0.0 0.0
Cu -3.6164083956257578 11.319168304648045 34.66004160829725 0.0 0.0 0.0
Cu -3.6164079972128285 8.087854858559414 33.04454661394006 0.0 0.0 0.0
Cu -1.808204897033592 11.330586030934716 38.79154778800362 0.0 0.0 0.0
Cu -3.6164066856660133 12.115970453197932 37.106799734561875 0.0 0.0 0.0
Cu -3.6164099054009324 8.898776092867921 35.48842593485274 0.0 0.0 0.0
Cu -1.8082065046561941 9.703782480658631 33.85028865121055 0.0 0.0 0.0
Cu -3.6164064851883113 10.490002963557725 40.25462782934521 0.0 0.0 0.0
Cu 5.424612208492088 0.8087023185362339 31.404339178134663 0.0 0.0 0.0
Cu 3.616408609236826 1.6137087063269433 29.766201894492475 0.0 0.0 0.0
Cu 5.424608390977251 2.439780508637196 28.147828094783335 0.0 0.0 0.0
Cu 3.6164066023448287 3.225164930900412 26.463080041341595 0.0 0.0 0.0
Cu 3.6164051890242046 0.0224818356371408 25.000000000000004 0.0 0.0 0.0
Cu 5.424610100936995 3.2365826571870806 30.59458622104797 0.0 0.0 0.0
Cu 3.616408309743153 4.042741376460766 28.950788365084527 0.0 0.0 0.0
Cu 3.6164068978981625 0.8280902309122897 27.32911526036529 0.0 0.0 0.0
Cu 5.424608491353196 1.625685311454486 25.694341973988298 0.0 0.0 0.0
Cu 3.616406701048722 2.424629940635451 32.21008121540516 0.0 0.0 0.0
Cu 5.424612209532011 0.8002671624598545 39.56028585535691 0.0 0.0 0.0
Cu 3.616406802987044 1.5978622430020508 37.925512568979926 0.0 0.0 0.0
Cu 5.4246083926173965 2.426477260093836 36.30383946426068 0.0 0.0 0.0
Cu 3.616406601423555 3.2326359793675215 34.66004160829725 0.0 0.0 0.0
Cu 3.6164069998364843 0.0013225332788895 33.04454661394006 0.0 0.0 0.0
Cu 5.4246101000157205 3.2440537056541916 38.79154778800362 0.0 0.0 0.0
Cu 3.6164083113832994 4.029438127917406 37.106799734561875 0.0 0.0 0.0
Cu 3.6164050916483803 0.8122437675873972 35.48842593485274 0.0 0.0 0.0
Cu 5.424608492393118 1.6172501553781065 33.85028865121055 0.0 0.0 0.0
Cu 3.6164085118610014 2.4034706382771995 40.25462782934521 0.0 0.0 0.0
Cu 3.6164082099674317 4.851968481176496 31.404339178134663 0.0 0.0 0.0
Cu 1.8082046107121696 5.656974868967206 29.766201894492475 0.0 0.0 0.0
Cu 3.616404392452594 6.483046671277458 28.147828094783335 0.0 0.0 0.0
Cu 1.8082026038201726 7.2684310935406735 26.463080041341595 0.0 0.0 0.0
Cu 1.8082011904995483 4.065747998277403 25.000000000000004 0.0 0.0 0.0
Cu 3.6164061024123386 7.279848819827343 30.59458622104797 0.0 0.0 0.0
Cu 1.8082043112184971 8.086007539101029 28.950788365084527 0.0 0.0 0.0
Cu 1.808202899373506 4.871356393552552 27.32911526036529 0.0 0.0 0.0
Cu 3.61640449282854 5.668951474094748 25.694341973988298 0.0 0.0 0.0
Cu 1.808202702524066 6.467896103275713 32.21008121540516 0.0 0.0 0.0
Cu 3.6164082110073545 4.8435333251001165 39.56028585535691 0.0 0.0 0.0
Cu 1.8082028044623877 5.641128405642313 37.925512568979926 0.0 0.0 0.0
Cu 3.61640439409274 6.469743422734098 36.30383946426068 0.0 0.0 0.0
Cu 1.8082026028988987 7.275902142007784 34.66004160829725 0.0 0.0 0.0
Cu 1.8082030013118278 4.044588695919152 33.04454661394006 0.0 0.0 0.0
Cu 3.6164061014910645 7.287319868294453 38.79154778800362 0.0 0.0 0.0
Cu 1.8082043128586431 8.072704290557668 37.106799734561875 0.0 0.0 0.0
Cu 1.8082010931237242 4.85550993022766 35.48842593485274 0.0 0.0 0.0
Cu 3.6164044938684623 5.660516318018368 33.85028865121055 0.0 0.0 0.0
Cu 1.8082045133363454 6.446736800917462 40.25462782934521 0.0 0.0 0.0
Cu 1.8082042114427757 8.895234643816758 31.404339178134663 0.0 0.0 0.0
Cu 6.121875134e-07 9.700241031607467 29.766201894492475 0.0 0.0 0.0
Cu 1.808200393927938 10.526312833917721 28.147828094783335 0.0 0.0 0.0
Cu -1.3947044838e-06 11.311697256180937 26.463080041341595 0.0 0.0 0.0
Cu -2.8080251081e-06 8.109014160917665 25.000000000000004 0.0 0.0 0.0
Cu 1.8082021038876823 11.323114982467605 30.59458622104797 0.0 0.0 0.0
Cu 3.126938408e-07 12.12927370174129 28.950788365084527 0.0 0.0 0.0
Cu -1.0991511502e-06 8.914622556192814 27.32911526036529 0.0 0.0 0.0
Cu 1.8082004943038834 9.71221763673501 25.694341973988298 0.0 0.0 0.0
Cu -1.2960005904e-06 10.511162265915974 32.21008121540516 0.0 0.0 0.0
Cu 1.808204212482698 8.88679948774038 39.56028585535691 0.0 0.0 0.0
Cu -1.1940622685e-06 9.684394568282576 37.925512568979926 0.0 0.0 0.0
Cu 1.8082003955680839 10.51300958537436 36.30383946426068 0.0 0.0 0.0
Cu -1.3956257577e-06 11.319168304648045 34.66004160829725 0.0 0.0 0.0
Cu -9.972128285e-07 8.087854858559414 33.04454661394006 0.0 0.0 0.0
Cu 1.8082021029664082 11.330586030934716 38.79154778800362 0.0 0.0 0.0
Cu 3.143339869e-07 12.115970453197932 37.106799734561875 0.0 0.0 0.0
Cu -2.9054009322e-06 8.898776092867921 35.48842593485274 0.0 0.0 0.0
Cu 1.808200495343806 9.703782480658631 33.85028865121055 0.0 0.0 0.0
Cu 5.14811689e-07 10.490002963557725 40.25462782934521 0.0 0.0 0.0
Cu 9.041019208492088 0.8087023185362339 31.404339178134663 0.0 0.0 0.0
Cu 7.232815609236826 1.6137087063269433 29.766201894492475 0.0 0.0 0.0
Cu 9.04101539097725 2.439780508637196 28.147828094783335 0.0 0.0 0.0
Cu 7.232813602344829 3.225164930900412 26.463080041341595 0.0 0.0 0.0
Cu 7.232812189024204 0.0224818356371408 25.000000000000004 0.0 0.0 0.0
Cu 9.041017100936996 3.2365826571870806 30.59458622104797 0.0 0.0 0.0
Cu 7.232815309743153 4.042741376460766 28.950788365084527 0.0 0.0 0.0
Cu 7.232813897898162 0.8280902309122897 27.32911526036529 0.0 0.0 0.0
Cu 9.041015491353196 1.625685311454486 25.694341973988298 0.0 0.0 0.0
Cu 7.232813701048722 2.424629940635451 32.21008121540516 0.0 0.0 0.0
Cu 9.04101920953201 0.8002671624598545 39.56028585535691 0.0 0.0 0.0
Cu 7.232813802987044 1.5978622430020508 37.925512568979926 0.0 0.0 0.0
Cu 9.041015392617396 2.426477260093836 36.30383946426068 0.0 0.0 0.0
Cu 7.232813601423555 3.2326359793675215 34.66004160829725 0.0 0.0 0.0
Cu 7.232813999836484 0.0013225332788895 33.04454661394006 0.0 0.0 0.0
Cu 9.04101710001572 3.2440537056541916 38.79154778800362 0.0 0.0 0.0
Cu 7.2328153113833 4.029438127917406 37.106799734561875 0.0 0.0 0.0
Cu 7.2328120916483805 0.8122437675873972 35.48842593485274 0.0 0.0 0.0
Cu 9.041015492393118 1.6172501553781065 33.85028865121055 0.0 0.0 0.0
Cu 7.232815511861002 2.4034706382771995 40.25462782934521 0.0 0.0 0.0
Cu 7.232815209967432 4.851968481176496 31.404339178134663 0.0 0.0 0.0
Cu 5.424611610712169 5.656974868967206 29.766201894492475 0.0 0.0 0.0
Cu 7.232811392452595 6.483046671277458 28.147828094783335 0.0 0.0 0.0
Cu 5.424609603820173 7.2684310935406735 26.463080041341595 0.0 0.0 0.0
Cu 5.424608190499548 4.065747998277403 25.000000000000004 0.0 0.0 0.0
Cu 7.232813102412338 7.279848819827343 30.59458622104797 0.0 0.0 0.0
Cu 5.424611311218497 8.086007539101029 28.950788365084527 0.0 0.0 0.0
Cu 5.424609899373506 4.871356393552552 27.32911526036529 0.0 0.0 0.0
Cu 7.23281149282854 5.668951474094748 25.694341973988298 0.0 0.0 0.0
Cu 5.424609702524066 6.467896103275713 32.21008121540516 0.0 0.0 0.0
Cu 7.232815211007354 4.8435333251001165 39.56028585535691 0.0 0.0 0.0
Cu 5.424609804462388 5.641128405642313 37.925512568979926 0.0 0.0 0.0
Cu 7.2328113940927405 6.469743422734098 36.30383946426068 0.0 0.0 0.0
Cu 5.424609602898898 7.275902142007784 34.66004160829725 0.0 0.0 0.0
Cu 5.4246100013118275 4.044588695919152 33.04454661394006 0.0 0.0 0.0
Cu 7.232813101491065 7.287319868294453 38.79154778800362 0.0 0.0 0.0
Cu 5.4246113128586435 8.072704290557668 37.106799734561875 0.0 0.0 0.0
Cu 5.424608093123724 4.85550993022766 35.48842593485274 0.0 0.0 0.0
Cu 7.2328114938684624 5.660516318018368 33.85028865121055 0.0 0.0 0.0
Cu 5.4246115133363455 6.446736800917462 40.25462782934521 0.0 0.0 0.0
Cu 5.424611211442776 8.895234643816758 31.404339178134663 0.0 0.0 0.0
Cu 3.6164076121875137 9.700241031607467 29.766201894492475 0.0 0.0 0.0
Cu 5.424607393927938 10.526312833917721 28.147828094783335 0.0 0.0 0.0
Cu 3.6164056052955162 11.311697256180937 26.463080041341595 0.0 0.0 0.0
Cu 3.616404191974892 8.109014160917665 25.000000000000004 0.0 0.0 0.0
Cu 5.424609103887683 11.323114982467605 30.59458622104797 0.0 0.0 0.0
Cu 3.6164073126938407 12.12927370174129 28.950788365084527 0.0 0.0 0.0
Cu 3.61640590084885 8.914622556192814 27.32911526036529 0.0 0.0 0.0
Cu 5.424607494303883 9.71221763673501 25.694341973988298 0.0 0.0 0.0
Cu 3.6164057039994097 10.511162265915974 32.21008121540516 0.0 0.0 0.0
Cu 5.424611212482699 8.88679948774038 39.56028585535691 0.0 0.0 0.0
Cu 3.6164058059377315 9.684394568282576 37.925512568979926 0.0 0.0 0.0
Cu 5.424607395568084 10.51300958537436 36.30383946426068 0.0 0.0 0.0
Cu 3.6164056043742425 11.319168304648045 34.66004160829725 0.0 0.0 0.0
Cu 3.616406002787172 8.087854858559414 33.04454661394006 0.0 0.0 0.0
Cu 5.424609102966408 11.330586030934716 38.79154778800362 0.0 0.0 0.0
Cu 3.616407314333987 12.115970453197932 37.106799734561875 0.0 0.0 0.0
Cu 3.616404094599068 8.898776092867921 35.48842593485274 0.0 0.0 0.0
Cu 5.424607495343806 9.703782480658631 33.85028865121055 0.0 0.0 0.0
Cu 3.616407514811689 10.490002963557725 40.25462782934521 0.0 0.0 0.0
Cu 12.657426208492089 0.8087023185362339 31.404339178134663 0.0 0.0 0.0
Cu 10.849222609236826 1.6137087063269433 29.766201894492475 0.0 0.0 0.0
Cu 12.657422390977251 2.439780508637196 28.147828094783335 0.0 0.0 0.0
Cu 10.849220602344829 3.225164930900412 26.463080041341595 0.0 0.0 0.0
Cu 10.849219189024204 0.0224818356371408 25.000000000000004 0.0 0.0 0.0
Cu 12.657424100936995 3.2365826571870806 30.59458622104797 0.0 0.0 0.0
Cu 10.849222309743153 4.042741376460766 28.950788365084527 0.0 0.0 0.0
Cu 10.849220897898162 0.8280902309122897 27.32911526036529 0.0 0.0 0.0
Cu 12.657422491353195 1.625685311454486 25.694341973988298 0.0 0.0 0.0
Cu 10.849220701048722 2.424629940635451 32.21008121540516 0.0 0.0 0.0
Cu 12.65742620953201 0.8002671624598545 39.56028585535691 0.0 0.0 0.0
Cu 10.849220802987045 1.5978622430020508 37.925512568979926 0.0 0.0 0.0
Cu 12.657422392617397 2.426477260093836 36.30383946426068 0.0 0.0 0.0
Cu 10.849220601423555 3.2326359793675215 34.66004160829725 0.0 0.0 0.0
Cu 10.849220999836485 0.0013225332788895 33.04454661394006 0.0 0.0 0.0
Cu 12.65742410001572 3.2440537056541916 38.79154778800362 0.0 0.0 0.0
Cu 10.849222311383299 4.029438127917406 37.106799734561875 0.0 0.0 0.0
Cu 10.849219091648381 0.8122437675873972 35.48842593485274 0.0 0.0 0.0
Cu 12.657422492393119 1.6172501553781065 33.85028865121055 0.0 0.0 0.0
Cu 10.849222511861 2.4034706382771995 40.25462782934521 0.0 0.0 0.0
Cu 10.849222209967433 4.851968481176496 31.404339178134663 0.0 0.0 0.0
Cu 9.04101861071217 5.656974868967206 29.766201894492475 0.0 0.0 0.0
Cu 10.849218392452595 6.483046671277458 28.147828094783335 0.0 0.0 0.0
Cu 9.041016603820173 7.2684310935406735 26.463080041341595 0.0 0.0 0.0
Cu 9.041015190499548 4.065747998277403 25.000000000000004 0.0 0.0 0.0
Cu 10.849220102412339 7.279848819827343 30.59458622104797 0.0 0.0 0.0
Cu 9.041018311218497 8.086007539101029 28.950788365084527 0.0 0.0 0.0
Cu 9.041016899373506 4.871356393552552 27.32911526036529 0.0 0.0 0.0
Cu 10.849218492828541 5.668951474094748 25.694341973988298 0.0 0.0 0.0
Cu 9.041016702524066 6.467896103275713 32.21008121540516 0.0 0.0 0.0
Cu 10.849222211007355 4.8435333251001165 39.56028585535691 0.0 0.0 0.0
Cu 9.041016804462389 5.641128405642313 37.925512568979926 0.0 0.0 0.0
Cu 10.849218394092741 6.469743422734098 36.30383946426068 0.0 0.0 0.0
Cu 9.0410166028989 7.275902142007784 34.66004160829725 0.0 0.0 0.0
Cu 9.041017001311829 4.044588695919152 33.04454661394006 0.0 0.0 0.0
Cu 10.849220101491065 7.287319868294453 38.79154778800362 0.0 0.0 0.0
Cu 9.041018312858643 8.072704290557668 37.106799734561875 0.0 0.0 0.0
Cu 9.041015093123725 4.85550993022766 35.48842593485274 0.0 0.0 0.0
Cu 10.849218493868463 5.660516318018368 33.85028865121055 0.0 0.0 0.0
Cu 9.041018513336345 6.446736800917462 40.25462782934521 0.0 0.0 0.0
Cu 9.041018211442776 8.895234643816758 31.404339178134663 0.0 0.0 0.0
Cu 7.2328146121875125 9.700241031607467 29.766201894492475 0.0 0.0 0.0
Cu 9.041014393927938 10.526312833917721 28.147828094783335 0.0 0.0 0.0
Cu 7.232812605295516 11.311697256180937 26.463080041341595 0.0 0.0 0.0
Cu 7.232811191974891 8.109014160917665 25.000000000000004 0.0 0.0 0.0
Cu 9.041016103887682 11.323114982467605 30.59458622104797 0.0 0.0 0.0
Cu 7.23281431269384 12.12927370174129 28.950788365084527 0.0 0.0 0.0
Cu 7.232812900848849 8.914622556192814 27.32911526036529 0.0 0.0 0.0
Cu 9.041014494303884 9.71221763673501 25.694341973988298 0.0 0.0 0.0
Cu 7.232812703999409 10.511162265915974 32.21008121540516 0.0 0.0 0.0
Cu 9.041018212482697 8.88679948774038 39.56028585535691 0.0 0.0 0.0
Cu 7.232812805937731 9.684394568282576 37.925512568979926 0.0 0.0 0.0
Cu 9.041014395568084 10.51300958537436 36.30383946426068 0.0 0.0 0.0
Cu 7.232812604374241 11.319168304648045 34.66004160829725 0.0 0.0 0.0
Cu 7.232813002787171 8.087854858559414 33.04454661394006 0.0 0.0 0.0
Cu 9.041016102966408 11.330586030934716 38.79154778800362 0.0 0.0 0.0
Cu 7.232814314333987 12.115970453197932 37.106799734561875 0.0 0.0 0.0
Cu 7.232811094599067 8.898776092867921 35.48842593485274 0.0 0.0 0.0
Cu 9.041014495343806 9.703782480658631 33.85028865121055 0.0 0.0 0.0
Cu 7.232814514811689 10.490002963557725 40.25462782934521 0.0 0.0 0.0
