# total energy = -688.0134362504272 ev

CRYSTAL
PRIMVEC
10.22874366 0.0 0.0
0.0 12.52760132 0.0
0.0 0.0 67.52089869565233
PRIMCOORD
192 1 
Cu 0.0 6.2288361247158806 24.999999999999993 0.0 0.0 0.0
Cu 2.557185915 2.10659759136658 26.291087065798163 0.0 0.0 0.0
Cu 0.0 4.1900754944970995 27.831235552281225 0.0 0.0 0.0
Cu 2.557185915 6.262635593077239 29.279646946979796 0.0 0.0 0.0
Cu 0.0 2.0858832025839598 30.787444732497523 0.0 0.0 0.0
Cu 2.557185915 4.175054900514421 32.274832875347094 0.0 0.0 0.0
Cu 0.0 2.1031211820002795 26.297677679576424 0.0 0.0 0.0
Cu 2.557185915 4.18591633085886 27.807566036131345 0.0 0.0 0.0
Cu 0.0 0.00176012798546 29.298426652907093 0.0 0.0 0.0
Cu 2.557185915 2.0844362646315 30.783015556571275 0.0 0.0 0.0
Cu 0.0 4.17646425566292 32.26781706067992 0.0 0.0 0.0
Cu 2.557185915 6.263124169528719 33.76463048990054 0.0 0.0 0.0
Cu 3.81249313755801 0.03438200182274 27.047448580372023 0.0 0.0 0.0
Cu 1.27875150302673 2.0895600535713794 28.548903785963365 0.0 0.0 0.0
Cu 3.8317487474979597 4.17356411595734 30.041146305628104 0.0 0.0 0.0
Cu 1.28144677698114 6.2634937337676595 31.526124976773794 0.0 0.0 0.0
Cu 3.83467928255655 2.0875117907555603 33.01868639710523 0.0 0.0 0.0
Cu 1.27833212453667 4.17999703923516 25.638368267898553 0.0 0.0 0.0
Cu 1.3018786924419898 0.03438200182274 27.047448580372023 0.0 0.0 0.0
Cu 3.83562032697327 2.0895600535713794 28.548903785963365 0.0 0.0 0.0
Cu 1.28262308250204 4.17356411595734 30.041146305628104 0.0 0.0 0.0
Cu 3.8329250530188594 6.2634937337676595 31.526124976773794 0.0 0.0 0.0
Cu 1.27969254744345 2.0875117907555603 33.01868639710523 0.0 0.0 0.0
Cu 3.83603970546333 4.17999703923516 25.638368267898553 0.0 0.0 0.0
Cu 0.0 0.00067649047128 33.75626820575178 0.0 0.0 0.0
Cu 2.557185915 2.0873364043370795 35.25308163497242 0.0 0.0 0.0
Cu 0.0 4.1793643953685 36.737883139081056 0.0 0.0 0.0
Cu 2.557185915 6.262040532014541 38.22247204274524 0.0 0.0 0.0
Cu 0.0 2.07788432914114 39.71333265952099 0.0 0.0 0.0
Cu 2.557185915 4.16067947799972 41.223221016075904 0.0 0.0 0.0
Cu 0.0 2.0887457594855796 35.24606582030523 0.0 0.0 0.0
Cu 2.557185915 4.17791745741604 36.7334539631548 0.0 0.0 0.0
Cu 0.0 0.00116506692276 38.24125174867253 0.0 0.0 0.0
Cu 2.557185915 2.0737251655029 39.68966314337111 0.0 0.0 0.0
Cu 0.0 4.157203068633421 41.22981162985417 0.0 0.0 0.0
Cu 2.557185915 0.03496453528412 42.520898695652335 0.0 0.0 0.0
Cu 3.8386326919811395 0.00030692623234 35.994773718878534 0.0 0.0 0.0
Cu 1.2745628324979599 2.0902365440426602 37.479752390024224 0.0 0.0 0.0
Cu 3.835937418026729 4.17424060642862 38.97199490968896 0.0 0.0 0.0
Cu 1.25530722255801 6.22941865817726 40.4734501152803 0.0 0.0 0.0
Cu 3.835518039536669 2.08380362076484 41.88253042775378 0.0 0.0 0.0
Cu 1.2774933675565499 4.1762888692444395 34.50221229854711 0.0 0.0 0.0
Cu 1.2757391380188599 0.00030692623234 35.994773718878534 0.0 0.0 0.0
Cu 3.8398089975020397 2.0902365440426602 37.479752390024224 0.0 0.0 0.0
Cu 1.2784344119732698 4.17424060642862 38.97199490968896 0.0 0.0 0.0
Cu 3.859064607441989 6.22941865817726 40.4734501152803 0.0 0.0 0.0
Cu 1.2788537904633297 2.08380362076484 41.88253042775378 0.0 0.0 0.0
Cu 3.836878462443449 4.1762888692444395 34.50221229854711 0.0 0.0 0.0
Cu 0.0 12.49263678471588 24.999999999999993 0.0 0.0 0.0
Cu 2.557185915 8.37039825136658 26.291087065798163 0.0 0.0 0.0
Cu 0.0 10.453876154497099 27.831235552281225 0.0 0.0 0.0
Cu 2.557185915 12.52643625307724 29.279646946979796 0.0 0.0 0.0
Cu 0.0 8.34968386258396 30.787444732497523 0.0 0.0 0.0
Cu 2.557185915 10.43885556051442 32.274832875347094 0.0 0.0 0.0
Cu 0.0 8.36692184200028 26.297677679576424 0.0 0.0 0.0
Cu 2.557185915 10.44971699085886 27.807566036131345 0.0 0.0 0.0
Cu 0.0 6.265560787985461 29.298426652907093 0.0 0.0 0.0
Cu 2.557185915 8.3482369246315 30.783015556571275 0.0 0.0 0.0
Cu 0.0 10.44026491566292 32.26781706067992 0.0 0.0 0.0
Cu 2.557185915 12.52692482952872 33.76463048990054 0.0 0.0 0.0
Cu 3.81249313755801 6.29818266182274 27.047448580372023 0.0 0.0 0.0
Cu 1.27875150302673 8.35336071357138 28.548903785963365 0.0 0.0 0.0
Cu 3.8317487474979597 10.43736477595734 30.041146305628104 0.0 0.0 0.0
Cu 1.28144677698114 12.52729439376766 31.526124976773794 0.0 0.0 0.0
Cu 3.83467928255655 8.351312450755561 33.01868639710523 0.0 0.0 0.0
Cu 1.27833212453667 10.44379769923516 25.638368267898553 0.0 0.0 0.0
Cu 1.3018786924419898 6.29818266182274 27.047448580372023 0.0 0.0 0.0
Cu 3.83562032697327 8.35336071357138 28.548903785963365 0.0 0.0 0.0
Cu 1.28262308250204 10.43736477595734 30.041146305628104 0.0 0.0 0.0
Cu 3.8329250530188594 12.52729439376766 31.526124976773794 0.0 0.0 0.0
Cu 1.27969254744345 8.351312450755561 33.01868639710523 0.0 0.0 0.0
Cu 3.83603970546333 10.44379769923516 25.638368267898553 0.0 0.0 0.0
Cu 0.0 6.26447715047128 33.75626820575178 0.0 0.0 0.0
Cu 2.557185915 8.35113706433708 35.25308163497242 0.0 0.0 0.0
Cu 0.0 10.4431650553685 36.737883139081056 0.0 0.0 0.0
Cu 2.557185915 12.525841192014541 38.22247204274524 0.0 0.0 0.0
Cu 0.0 8.34168498914114 39.71333265952099 0.0 0.0 0.0
Cu 2.557185915 10.42448013799972 41.223221016075904 0.0 0.0 0.0
Cu 0.0 8.35254641948558 35.24606582030523 0.0 0.0 0.0
Cu 2.557185915 10.441718117416041 36.7334539631548 0.0 0.0 0.0
Cu 0.0 6.26496572692276 38.24125174867253 0.0 0.0 0.0
Cu 2.557185915 8.337525825502901 39.68966314337111 0.0 0.0 0.0
Cu 0.0 10.421003728633421 41.22981162985417 0.0 0.0 0.0
Cu 2.557185915 6.29876519528412 42.520898695652335 0.0 0.0 0.0
Cu 3.8386326919811395 6.26410758623234 35.994773718878534 0.0 0.0 0.0
Cu 1.2745628324979599 8.35403720404266 37.479752390024224 0.0 0.0 0.0
Cu 3.835937418026729 10.43804126642862 38.97199490968896 0.0 0.0 0.0
Cu 1.25530722255801 12.49321931817726 40.4734501152803 0.0 0.0 0.0
Cu 3.835518039536669 8.347604280764841 41.88253042775378 0.0 0.0 0.0
Cu 1.2774933675565499 10.440089529244439 34.50221229854711 0.0 0.0 0.0
Cu 1.2757391380188599 6.26410758623234 35.994773718878534 0.0 0.0 0.0
Cu 3.8398089975020397 8.35403720404266 37.479752390024224 0.0 0.0 0.0
Cu 1.2784344119732698 10.43804126642862 38.97199490968896 0.0 0.0 0.0
Cu 3.859064607441989 12.49321931817726 40.4734501152803 0.0 0.0 0.0
Cu 1.2788537904633297 8.347604280764841 41.88253042775378 0.0 0.0 0.0
Cu 3.836878462443449 10.440089529244439 34.50221229854711 0.0 0.0 0.0
Cu 5.11437183 6.2288361247158806 24.999999999999993 0.0 0.0 0.0
Cu 7.671557744999999 2.10659759136658 26.291087065798163 0.0 0.0 0.0
Cu 5.11437183 4.1900754944970995 27.831235552281225 0.0 0.0 0.0
Cu 7.671557744999999 6.262635593077239 29.279646946979796 0.0 0.0 0.0
Cu 5.11437183 2.0858832025839598 30.787444732497523 0.0 0.0 0.0
Cu 7.671557744999999 4.175054900514421 32.274832875347094 0.0 0.0 0.0
Cu 5.11437183 2.1031211820002795 26.297677679576424 0.0 0.0 0.0
Cu 7.671557744999999 4.18591633085886 27.807566036131345 0.0 0.0 0.0
Cu 5.11437183 0.00176012798546 29.298426652907093 0.0 0.0 0.0
Cu 7.671557744999999 2.0844362646315 30.783015556571275 0.0 0.0 0.0
Cu 5.11437183 4.17646425566292 32.26781706067992 0.0 0.0 0.0
Cu 7.671557744999999 6.263124169528719 33.76463048990054 0.0 0.0 0.0
Cu 8.926864967558009 0.03438200182274 27.047448580372023 0.0 0.0 0.0
Cu 6.39312333302673 2.0895600535713794 28.548903785963365 0.0 0.0 0.0
Cu 8.94612057749796 4.17356411595734 30.041146305628104 0.0 0.0 0.0
Cu 6.395818606981139 6.2634937337676595 31.526124976773794 0.0 0.0 0.0
Cu 8.94905111255655 2.0875117907555603 33.01868639710523 0.0 0.0 0.0
Cu 6.392703954536669 4.17999703923516 25.638368267898553 0.0 0.0 0.0
Cu 6.41625052244199 0.03438200182274 27.047448580372023 0.0 0.0 0.0
Cu 8.94999215697327 2.0895600535713794 28.548903785963365 0.0 0.0 0.0
Cu 6.3969949125020396 4.17356411595734 30.041146305628104 0.0 0.0 0.0
Cu 8.94729688301886 6.2634937337676595 31.526124976773794 0.0 0.0 0.0
Cu 6.394064377443449 2.0875117907555603 33.01868639710523 0.0 0.0 0.0
Cu 8.95041153546333 4.17999703923516 25.638368267898553 0.0 0.0 0.0
Cu 5.11437183 0.00067649047128 33.75626820575178 0.0 0.0 0.0
Cu 7.671557744999999 2.0873364043370795 35.25308163497242 0.0 0.0 0.0
Cu 5.11437183 4.1793643953685 36.737883139081056 0.0 0.0 0.0
Cu 7.671557744999999 6.262040532014541 38.22247204274524 0.0 0.0 0.0
Cu 5.11437183 2.07788432914114 39.71333265952099 0.0 0.0 0.0
Cu 7.671557744999999 4.16067947799972 41.223221016075904 0.0 0.0 0.0
Cu 5.11437183 2.0887457594855796 35.24606582030523 0.0 0.0 0.0
Cu 7.671557744999999 4.17791745741604 36.7334539631548 0.0 0.0 0.0
Cu 5.11437183 0.00116506692276 38.24125174867253 0.0 0.0 0.0
Cu 7.671557744999999 2.0737251655029 39.68966314337111 0.0 0.0 0.0
Cu 5.11437183 4.157203068633421 41.22981162985417 0.0 0.0 0.0
Cu 7.671557744999999 0.03496453528412 42.520898695652335 0.0 0.0 0.0
Cu 8.95300452198114 0.00030692623234 35.994773718878534 0.0 0.0 0.0
Cu 6.3889346624979595 2.0902365440426602 37.479752390024224 0.0 0.0 0.0
Cu 8.950309248026729 4.17424060642862 38.97199490968896 0.0 0.0 0.0
Cu 6.369679052558009 6.22941865817726 40.4734501152803 0.0 0.0 0.0
Cu 8.949889869536669 2.08380362076484 41.88253042775378 0.0 0.0 0.0
Cu 6.39186519755655 4.1762888692444395 34.50221229854711 0.0 0.0 0.0
Cu 6.39011096801886 0.00030692623234 35.994773718878534 0.0 0.0 0.0
Cu 8.95418082750204 2.0902365440426602 37.479752390024224 0.0 0.0 0.0
Cu 6.392806241973269 4.17424060642862 38.97199490968896 0.0 0.0 0.0
Cu 8.97343643744199 6.22941865817726 40.4734501152803 0.0 0.0 0.0
Cu 6.39322562046333 2.08380362076484 41.88253042775378 0.0 0.0 0.0
Cu 8.951250292443449 4.1762888692444395 34.50221229854711 0.0 0.0 0.0
Cu 5.11437183 12.49263678471588 24.999999999999993 0.0 0.0 0.0
Cu 7.671557744999999 8.37039825136658 26.291087065798163 0.0 0.0 0.0
Cu 5.11437183 10.453876154497099 27.831235552281225 0.0 0.0 0.0
Cu 7.671557744999999 12.52643625307724 29.279646946979796 0.0 0.0 0.0
Cu 5.11437183 8.34968386258396 30.787444732497523 0.0 0.0 0.0
Cu 7.671557744999999 10.43885556051442 32.274832875347094 0.0 0.0 0.0
Cu 5.11437183 8.36692184200028 26.297677679576424 0.0 0.0 0.0
Cu 7.671557744999999 10.44971699085886 27.807566036131345 0.0 0.0 0.0
Cu 5.11437183 6.265560787985461 29.298426652907093 0.0 0.0 0.0
Cu 7.671557744999999 8.3482369246315 30.783015556571275 0.0 0.0 0.0
Cu 5.11437183 10.44026491566292 32.26781706067992 0.0 0.0 0.0
Cu 7.671557744999999 12.52692482952872 33.76463048990054 0.0 0.0 0.0
Cu 8.926864967558009 6.29818266182274 27.047448580372023 0.0 0.0 0.0
Cu 6.39312333302673 8.35336071357138 28.548903785963365 0.0 0.0 0.0
Cu 8.94612057749796 10.43736477595734 30.041146305628104 0.0 0.0 0.0
Cu 6.395818606981139 12.52729439376766 31.526124976773794 0.0 0.0 0.0
Cu 8.94905111255655 8.351312450755561 33.01868639710523 0.0 0.0 0.0
Cu 6.392703954536669 10.44379769923516 25.638368267898553 0.0 0.0 0.0
Cu 6.41625052244199 6.29818266182274 27.047448580372023 0.0 0.0 0.0
Cu 8.94999215697327 8.35336071357138 28.548903785963365 0.0 0.0 0.0
Cu 6.3969949125020396 10.43736477595734 30.041146305628104 0.0 0.0 0.0
Cu 8.94729688301886 12.52729439376766 31.526124976773794 0.0 0.0 0.0
Cu 6.394064377443449 8.351312450755561 33.01868639710523 0.0 0.0 0.0
Cu 8.95041153546333 10.44379769923516 25.638368267898553 0.0 0.0 0.0
Cu 5.11437183 6.26447715047128 33.75626820575178 0.0 0.0 0.0
Cu 7.671557744999999 8.35113706433708 35.25308163497242 0.0 0.0 0.0
Cu 5.11437183 10.4431650553685 36.737883139081056 0.0 0.0 0.0
Cu 7.671557744999999 12.525841192014541 38.22247204274524 0.0 0.0 0.0
Cu 5.11437183 8.34168498914114 39.71333265952099 0.0 0.0 0.0
Cu 7.671557744999999 10.42448013799972 41.223221016075904 0.0 0.0 0.0
Cu 5.11437183 8.35254641948558 35.24606582030523 0.0 0.0 0.0
Cu 7.671557744999999 10.441718117416041 36.7334539631548 0.0 0.0 0.0
Cu 5.11437183 6.26496572692276 38.24125174867253 0.0 0.0 0.0
Cu 7.671557744999999 8.337525825502901 39.68966314337111 0.0 0.0 0.0
Cu 5.11437183 10.421003728633421 41.22981162985417 0.0 0.0 0.0
Cu 7.671557744999999 6.29876519528412 42.520898695652335 0.0 0.0 0.0
Cu 8.95300452198114 6.26410758623234 35.994773718878534 0.0 0.0 0.0
Cu 6.3889346624979595 8.35403720404266 37.479752390024224 0.0 0.0 0.0
Cu 8.950309248026729 10.43804126642862 38.97199490968896 0.0 0.0 0.0
Cu 6.369679052558009 12.49321931817726 40.4734501152803 0.0 0.0 0.0
Cu 8.949889869536669 8.347604280764841 41.88253042775378 0.0 0.0 0.0
Cu 6.39186519755655 10.440089529244439 34.50221229854711 0.0 0.0 0.0
Cu 6.39011096801886 6.26410758623234 35.994773718878534 0.0 0.0 0.0
Cu 8.95418082750204 8.35403720404266 37.479752390024224 0.0 0.0 0.0
Cu 6.392806241973269 10.43804126642862 38.97199490968896 0.0 0.0 0.0
Cu 8.97343643744199 12.49321931817726 40.4734501152803 0.0 0.0 0.0
Cu 6.39322562046333 8.347604280764841 41.88253042775378 0.0 0.0 0.0
Cu 8.951250292443449 10.440089529244439 34.50221229854711 0.0 0.0 0.0
