# total energy = -886.8008593550617 ev

CRYSTAL
PRIMVEC
17.90500138 0.0 0.0
0.0142030470947038 15.3362244432019 0.0
-0.0352690743033809 -0.0621298246098374 60.0791730613156
PRIMCOORD
252 1 
Cu -0.015626151007504 3.3873369927822194 33.995836440569796 0.0 0.0 0.0
Cu -0.012451143421283 6.797815729792223 32.74126973732574 0.0 0.0 0.0
Cu -0.0125549366024154 7.599077533736722 35.0791730613156 0.0 0.0 0.0
Cu -0.0161181083543224 2.517457075560826 31.557841054422937 0.0 0.0 0.0
Cu -0.0122222493475302 5.932175279249698 30.34131584132478 0.0 0.0 0.0
Cu 2.5423166193501037 1.6691504911718276 29.131839364998243 0.0 0.0 0.0
Cu 2.5459345775994886 5.0877976142597605 27.919977162379773 0.0 0.0 0.0
Cu 2.5423999400252146 0.7739395571343866 26.667319040169254 0.0 0.0 0.0
Cu 2.545404339613541 4.2412795989478305 25.514384276961525 0.0 0.0 0.0
Cu 1.2646565286524185 4.648217659423221 32.15919589893583 0.0 0.0 0.0
Cu 1.2611729760864931 0.398752583338904 30.94731200789652 0.0 0.0 0.0
Cu 1.2610896426793405 1.2939634949476442 33.41185402114635 0.0 0.0 0.0
Cu 1.2649560155994373 3.8038399944332837 29.737857219990822 0.0 0.0 0.0
Cu 1.268854425362046 7.218550530009933 28.521332006892663 0.0 0.0 0.0
Cu 1.2651797939585103 2.9381995438907564 27.337903323989867 0.0 0.0 0.0
Cu 1.2683624680152277 6.34867061278854 26.083336620745797 0.0 0.0 0.0
Cu 1.2652887028543227 2.1369377399462577 25.0 0.0 0.0 0.0
Cu 1.2651867793704081 5.494735697163851 34.56476709593324 0.0 0.0 0.0
Cu -0.0085246274601521 11.05544921438317 33.995836440569796 0.0 0.0 0.0
Cu -0.0053496198739311 14.465927951393173 32.74126973732574 0.0 0.0 0.0
Cu -0.0054534130550635 15.267189755337672 35.0791730613156 0.0 0.0 0.0
Cu -0.0090165848069705 10.185569297161775 31.557841054422937 0.0 0.0 0.0
Cu -0.0051207258001783 13.600287500850648 30.34131584132478 0.0 0.0 0.0
Cu 2.5494181428974554 9.337262712772777 29.131839364998243 0.0 0.0 0.0
Cu 2.5530361011468403 12.75590983586071 27.919977162379773 0.0 0.0 0.0
Cu 2.5495014635725664 8.442051778735337 26.667319040169254 0.0 0.0 0.0
Cu 2.5525058631608926 11.90939182054878 25.514384276961525 0.0 0.0 0.0
Cu 1.2717580521997705 12.31632988102417 32.15919589893583 0.0 0.0 0.0
Cu 1.268274499633845 8.066864804939854 30.94731200789652 0.0 0.0 0.0
Cu 1.2681911662266925 8.962075716548593 33.41185402114635 0.0 0.0 0.0
Cu 1.2720575391467892 11.471952216034234 29.737857219990822 0.0 0.0 0.0
Cu 1.275955948909398 14.886662751610883 28.521332006892663 0.0 0.0 0.0
Cu 1.2722813175058623 10.606311765491707 27.337903323989867 0.0 0.0 0.0
Cu 1.2754639915625796 14.01678283438949 26.083336620745797 0.0 0.0 0.0
Cu 1.2723902264016747 9.805049961547208 25.0 0.0 0.0 0.0
Cu 1.27228830291776 13.1628479187648 34.56476709593324 0.0 0.0 0.0
Cu 2.542231188992496 3.3873369927822194 33.995836440569796 0.0 0.0 0.0
Cu 2.545406196578717 6.797815729792223 32.74126973732574 0.0 0.0 0.0
Cu 2.5453024033975846 7.599077533736722 35.0791730613156 0.0 0.0 0.0
Cu 2.5417392316456775 2.517457075560826 31.557841054422937 0.0 0.0 0.0
Cu 2.54563509065247 5.932175279249698 30.34131584132478 0.0 0.0 0.0
Cu 5.100173959350103 1.6691504911718276 29.131839364998243 0.0 0.0 0.0
Cu 5.103791917599489 5.0877976142597605 27.919977162379773 0.0 0.0 0.0
Cu 5.100257280025215 0.7739395571343866 26.667319040169254 0.0 0.0 0.0
Cu 5.10326167961354 4.2412795989478305 25.514384276961525 0.0 0.0 0.0
Cu 3.8225138686524183 4.648217659423221 32.15919589893583 0.0 0.0 0.0
Cu 3.819030316086493 0.398752583338904 30.94731200789652 0.0 0.0 0.0
Cu 3.8189469826793405 1.2939634949476442 33.41185402114635 0.0 0.0 0.0
Cu 3.822813355599437 3.8038399944332837 29.737857219990822 0.0 0.0 0.0
Cu 3.826711765362046 7.218550530009933 28.521332006892663 0.0 0.0 0.0
Cu 3.8230371339585103 2.9381995438907564 27.337903323989867 0.0 0.0 0.0
Cu 3.8262198080152277 6.34867061278854 26.083336620745797 0.0 0.0 0.0
Cu 3.8231460428543227 2.1369377399462577 25.0 0.0 0.0 0.0
Cu 3.823044119370408 5.494735697163851 34.56476709593324 0.0 0.0 0.0
Cu 2.5493327125398477 11.05544921438317 33.995836440569796 0.0 0.0 0.0
Cu 2.552507720126069 14.465927951393173 32.74126973732574 0.0 0.0 0.0
Cu 2.5524039269449363 15.267189755337672 35.0791730613156 0.0 0.0 0.0
Cu 2.548840755193029 10.185569297161775 31.557841054422937 0.0 0.0 0.0
Cu 2.5527366141998216 13.600287500850648 30.34131584132478 0.0 0.0 0.0
Cu 5.107275482897455 9.337262712772777 29.131839364998243 0.0 0.0 0.0
Cu 5.110893441146841 12.75590983586071 27.919977162379773 0.0 0.0 0.0
Cu 5.107358803572566 8.442051778735337 26.667319040169254 0.0 0.0 0.0
Cu 5.110363203160892 11.90939182054878 25.514384276961525 0.0 0.0 0.0
Cu 3.82961539219977 12.31632988102417 32.15919589893583 0.0 0.0 0.0
Cu 3.826131839633845 8.066864804939854 30.94731200789652 0.0 0.0 0.0
Cu 3.8260485062266922 8.962075716548593 33.41185402114635 0.0 0.0 0.0
Cu 3.8299148791467887 11.471952216034234 29.737857219990822 0.0 0.0 0.0
Cu 3.833813288909398 14.886662751610883 28.521332006892663 0.0 0.0 0.0
Cu 3.830138657505862 10.606311765491707 27.337903323989867 0.0 0.0 0.0
Cu 3.8333213315625794 14.01678283438949 26.083336620745797 0.0 0.0 0.0
Cu 3.8302475664016744 9.805049961547208 25.0 0.0 0.0 0.0
Cu 3.83014564291776 13.1628479187648 34.56476709593324 0.0 0.0 0.0
Cu 5.1000885289924955 3.3873369927822194 33.995836440569796 0.0 0.0 0.0
Cu 5.103263536578717 6.797815729792223 32.74126973732574 0.0 0.0 0.0
Cu 5.103159743397584 7.599077533736722 35.0791730613156 0.0 0.0 0.0
Cu 5.0995965716456775 2.517457075560826 31.557841054422937 0.0 0.0 0.0
Cu 5.103492430652469 5.932175279249698 30.34131584132478 0.0 0.0 0.0
Cu 7.658031299350103 1.6691504911718276 29.131839364998243 0.0 0.0 0.0
Cu 7.661649257599489 5.0877976142597605 27.919977162379773 0.0 0.0 0.0
Cu 7.658114620025215 0.7739395571343866 26.667319040169254 0.0 0.0 0.0
Cu 7.66111901961354 4.2412795989478305 25.514384276961525 0.0 0.0 0.0
Cu 6.380371208652418 4.648217659423221 32.15919589893583 0.0 0.0 0.0
Cu 6.3768876560864935 0.398752583338904 30.94731200789652 0.0 0.0 0.0
Cu 6.376804322679341 1.2939634949476442 33.41185402114635 0.0 0.0 0.0
Cu 6.380670695599437 3.8038399944332837 29.737857219990822 0.0 0.0 0.0
Cu 6.384569105362046 7.218550530009933 28.521332006892663 0.0 0.0 0.0
Cu 6.38089447395851 2.9381995438907564 27.337903323989867 0.0 0.0 0.0
Cu 6.384077148015228 6.34867061278854 26.083336620745797 0.0 0.0 0.0
Cu 6.381003382854322 2.1369377399462577 25.0 0.0 0.0 0.0
Cu 6.380901459370408 5.494735697163851 34.56476709593324 0.0 0.0 0.0
Cu 5.107190052539847 11.05544921438317 33.995836440569796 0.0 0.0 0.0
Cu 5.110365060126068 14.465927951393173 32.74126973732574 0.0 0.0 0.0
Cu 5.110261266944936 15.267189755337672 35.0791730613156 0.0 0.0 0.0
Cu 5.106698095193029 10.185569297161775 31.557841054422937 0.0 0.0 0.0
Cu 5.110593954199821 13.600287500850648 30.34131584132478 0.0 0.0 0.0
Cu 7.665132822897455 9.337262712772777 29.131839364998243 0.0 0.0 0.0
Cu 7.668750781146841 12.75590983586071 27.919977162379773 0.0 0.0 0.0
Cu 7.665216143572566 8.442051778735337 26.667319040169254 0.0 0.0 0.0
Cu 7.668220543160892 11.90939182054878 25.514384276961525 0.0 0.0 0.0
Cu 6.38747273219977 12.31632988102417 32.15919589893583 0.0 0.0 0.0
Cu 6.383989179633845 8.066864804939854 30.94731200789652 0.0 0.0 0.0
Cu 6.383905846226693 8.962075716548593 33.41185402114635 0.0 0.0 0.0
Cu 6.387772219146789 11.471952216034234 29.737857219990822 0.0 0.0 0.0
Cu 6.391670628909398 14.886662751610883 28.521332006892663 0.0 0.0 0.0
Cu 6.387995997505862 10.606311765491707 27.337903323989867 0.0 0.0 0.0
Cu 6.39117867156258 14.01678283438949 26.083336620745797 0.0 0.0 0.0
Cu 6.388104906401674 9.805049961547208 25.0 0.0 0.0 0.0
Cu 6.38800298291776 13.1628479187648 34.56476709593324 0.0 0.0 0.0
Cu 7.6579458689924955 3.3873369927822194 33.995836440569796 0.0 0.0 0.0
Cu 7.661120876578717 6.797815729792223 32.74126973732574 0.0 0.0 0.0
Cu 7.661017083397584 7.599077533736722 35.0791730613156 0.0 0.0 0.0
Cu 7.6574539116456775 2.517457075560826 31.557841054422937 0.0 0.0 0.0
Cu 7.661349770652469 5.932175279249698 30.34131584132478 0.0 0.0 0.0
Cu 10.215888639350103 1.6691504911718276 29.131839364998243 0.0 0.0 0.0
Cu 10.219506597599489 5.0877976142597605 27.919977162379773 0.0 0.0 0.0
Cu 10.215971960025215 0.7739395571343866 26.667319040169254 0.0 0.0 0.0
Cu 10.21897635961354 4.2412795989478305 25.514384276961525 0.0 0.0 0.0
Cu 8.938228548652418 4.648217659423221 32.15919589893583 0.0 0.0 0.0
Cu 8.934744996086494 0.398752583338904 30.94731200789652 0.0 0.0 0.0
Cu 8.934661662679341 1.2939634949476442 33.41185402114635 0.0 0.0 0.0
Cu 8.938528035599438 3.8038399944332837 29.737857219990822 0.0 0.0 0.0
Cu 8.942426445362045 7.218550530009933 28.521332006892663 0.0 0.0 0.0
Cu 8.938751813958511 2.9381995438907564 27.337903323989867 0.0 0.0 0.0
Cu 8.941934488015228 6.34867061278854 26.083336620745797 0.0 0.0 0.0
Cu 8.938860722854322 2.1369377399462577 25.0 0.0 0.0 0.0
Cu 8.938758799370408 5.494735697163851 34.56476709593324 0.0 0.0 0.0
Cu 7.665047392539847 11.05544921438317 33.995836440569796 0.0 0.0 0.0
Cu 7.668222400126068 14.465927951393173 32.74126973732574 0.0 0.0 0.0
Cu 7.668118606944936 15.267189755337672 35.0791730613156 0.0 0.0 0.0
Cu 7.664555435193029 10.185569297161775 31.557841054422937 0.0 0.0 0.0
Cu 7.668451294199821 13.600287500850648 30.34131584132478 0.0 0.0 0.0
Cu 10.222990162897455 9.337262712772777 29.131839364998243 0.0 0.0 0.0
Cu 10.22660812114684 12.75590983586071 27.919977162379773 0.0 0.0 0.0
Cu 10.223073483572566 8.442051778735337 26.667319040169254 0.0 0.0 0.0
Cu 10.226077883160892 11.90939182054878 25.514384276961525 0.0 0.0 0.0
Cu 8.94533007219977 12.31632988102417 32.15919589893583 0.0 0.0 0.0
Cu 8.941846519633845 8.066864804939854 30.94731200789652 0.0 0.0 0.0
Cu 8.941763186226693 8.962075716548593 33.41185402114635 0.0 0.0 0.0
Cu 8.94562955914679 11.471952216034234 29.737857219990822 0.0 0.0 0.0
Cu 8.949527968909397 14.886662751610883 28.521332006892663 0.0 0.0 0.0
Cu 8.945853337505863 10.606311765491707 27.337903323989867 0.0 0.0 0.0
Cu 8.94903601156258 14.01678283438949 26.083336620745797 0.0 0.0 0.0
Cu 8.945962246401674 9.805049961547208 25.0 0.0 0.0 0.0
Cu 8.94586032291776 13.1628479187648 34.56476709593324 0.0 0.0 0.0
Cu 10.215803208992495 3.3873369927822194 33.995836440569796 0.0 0.0 0.0
Cu 10.218978216578718 6.797815729792223 32.74126973732574 0.0 0.0 0.0
Cu 10.218874423397585 7.599077533736722 35.0791730613156 0.0 0.0 0.0
Cu 10.215311251645678 2.517457075560826 31.557841054422937 0.0 0.0 0.0
Cu 10.21920711065247 5.932175279249698 30.34131584132478 0.0 0.0 0.0
Cu 12.773745979350103 1.6691504911718276 29.131839364998243 0.0 0.0 0.0
Cu 12.777363937599489 5.0877976142597605 27.919977162379773 0.0 0.0 0.0
Cu 12.773829300025215 0.7739395571343866 26.667319040169254 0.0 0.0 0.0
Cu 12.77683369961354 4.2412795989478305 25.514384276961525 0.0 0.0 0.0
Cu 11.496085888652418 4.648217659423221 32.15919589893583 0.0 0.0 0.0
Cu 11.492602336086494 0.398752583338904 30.94731200789652 0.0 0.0 0.0
Cu 11.492519002679341 1.2939634949476442 33.41185402114635 0.0 0.0 0.0
Cu 11.496385375599438 3.8038399944332837 29.737857219990822 0.0 0.0 0.0
Cu 11.500283785362045 7.218550530009933 28.521332006892663 0.0 0.0 0.0
Cu 11.49660915395851 2.9381995438907564 27.337903323989867 0.0 0.0 0.0
Cu 11.499791828015228 6.34867061278854 26.083336620745797 0.0 0.0 0.0
Cu 11.496718062854322 2.1369377399462577 25.0 0.0 0.0 0.0
Cu 11.496616139370408 5.494735697163851 34.56476709593324 0.0 0.0 0.0
Cu 10.222904732539847 11.05544921438317 33.995836440569796 0.0 0.0 0.0
Cu 10.22607974012607 14.465927951393173 32.74126973732574 0.0 0.0 0.0
Cu 10.225975946944937 15.267189755337672 35.0791730613156 0.0 0.0 0.0
Cu 10.22241277519303 10.185569297161775 31.557841054422937 0.0 0.0 0.0
Cu 10.226308634199821 13.600287500850648 30.34131584132478 0.0 0.0 0.0
Cu 12.780847502897455 9.337262712772777 29.131839364998243 0.0 0.0 0.0
Cu 12.78446546114684 12.75590983586071 27.919977162379773 0.0 0.0 0.0
Cu 12.780930823572566 8.442051778735337 26.667319040169254 0.0 0.0 0.0
Cu 12.783935223160892 11.90939182054878 25.514384276961525 0.0 0.0 0.0
Cu 11.50318741219977 12.31632988102417 32.15919589893583 0.0 0.0 0.0
Cu 11.499703859633845 8.066864804939854 30.94731200789652 0.0 0.0 0.0
Cu 11.499620526226693 8.962075716548593 33.41185402114635 0.0 0.0 0.0
Cu 11.50348689914679 11.471952216034234 29.737857219990822 0.0 0.0 0.0
Cu 11.507385308909397 14.886662751610883 28.521332006892663 0.0 0.0 0.0
Cu 11.503710677505861 10.606311765491707 27.337903323989867 0.0 0.0 0.0
Cu 11.50689335156258 14.01678283438949 26.083336620745797 0.0 0.0 0.0
Cu 11.503819586401674 9.805049961547208 25.0 0.0 0.0 0.0
Cu 11.50371766291776 13.1628479187648 34.56476709593324 0.0 0.0 0.0
Cu 12.773660548992495 3.3873369927822194 33.995836440569796 0.0 0.0 0.0
Cu 12.776835556578718 6.797815729792223 32.74126973732574 0.0 0.0 0.0
Cu 12.776731763397585 7.599077533736722 35.0791730613156 0.0 0.0 0.0
Cu 12.773168591645678 2.517457075560826 31.557841054422937 0.0 0.0 0.0
Cu 12.77706445065247 5.932175279249698 30.34131584132478 0.0 0.0 0.0
Cu 15.331603319350103 1.6691504911718276 29.131839364998243 0.0 0.0 0.0
Cu 15.335221277599489 5.0877976142597605 27.919977162379773 0.0 0.0 0.0
Cu 15.331686640025215 0.7739395571343866 26.667319040169254 0.0 0.0 0.0
Cu 15.33469103961354 4.2412795989478305 25.514384276961525 0.0 0.0 0.0
Cu 14.053943228652418 4.648217659423221 32.15919589893583 0.0 0.0 0.0
Cu 14.050459676086493 0.398752583338904 30.94731200789652 0.0 0.0 0.0
Cu 14.05037634267934 1.2939634949476442 33.41185402114635 0.0 0.0 0.0
Cu 14.054242715599438 3.8038399944332837 29.737857219990822 0.0 0.0 0.0
Cu 14.058141125362045 7.218550530009933 28.521332006892663 0.0 0.0 0.0
Cu 14.054466493958511 2.9381995438907564 27.337903323989867 0.0 0.0 0.0
Cu 14.057649168015228 6.34867061278854 26.083336620745797 0.0 0.0 0.0
Cu 14.054575402854322 2.1369377399462577 25.0 0.0 0.0 0.0
Cu 14.054473479370408 5.494735697163851 34.56476709593324 0.0 0.0 0.0
Cu 12.780762072539847 11.05544921438317 33.995836440569796 0.0 0.0 0.0
Cu 12.78393708012607 14.465927951393173 32.74126973732574 0.0 0.0 0.0
Cu 12.783833286944937 15.267189755337672 35.0791730613156 0.0 0.0 0.0
Cu 12.78027011519303 10.185569297161775 31.557841054422937 0.0 0.0 0.0
Cu 12.784165974199821 13.600287500850648 30.34131584132478 0.0 0.0 0.0
Cu 15.338704842897455 9.337262712772777 29.131839364998243 0.0 0.0 0.0
Cu 15.34232280114684 12.75590983586071 27.919977162379773 0.0 0.0 0.0
Cu 15.338788163572566 8.442051778735337 26.667319040169254 0.0 0.0 0.0
Cu 15.341792563160892 11.90939182054878 25.514384276961525 0.0 0.0 0.0
Cu 14.06104475219977 12.31632988102417 32.15919589893583 0.0 0.0 0.0
Cu 14.057561199633845 8.066864804939854 30.94731200789652 0.0 0.0 0.0
Cu 14.057477866226693 8.962075716548593 33.41185402114635 0.0 0.0 0.0
Cu 14.06134423914679 11.471952216034234 29.737857219990822 0.0 0.0 0.0
Cu 14.065242648909397 14.886662751610883 28.521332006892663 0.0 0.0 0.0
Cu 14.061568017505863 10.606311765491707 27.337903323989867 0.0 0.0 0.0
Cu 14.06475069156258 14.01678283438949 26.083336620745797 0.0 0.0 0.0
Cu 14.061676926401674 9.805049961547208 25.0 0.0 0.0 0.0
Cu 14.06157500291776 13.1628479187648 34.56476709593324 0.0 0.0 0.0
Cu 15.331517888992495 3.3873369927822194 33.995836440569796 0.0 0.0 0.0
Cu 15.334692896578717 6.797815729792223 32.74126973732574 0.0 0.0 0.0
Cu 15.334589103397585 7.599077533736722 35.0791730613156 0.0 0.0 0.0
Cu 15.331025931645678 2.517457075560826 31.557841054422937 0.0 0.0 0.0
Cu 15.33492179065247 5.932175279249698 30.34131584132478 0.0 0.0 0.0
Cu 17.889460659350103 1.6691504911718276 29.131839364998243 0.0 0.0 0.0
Cu 17.89307861759949 5.0877976142597605 27.919977162379773 0.0 0.0 0.0
Cu 17.889543980025216 0.7739395571343866 26.667319040169254 0.0 0.0 0.0
Cu 17.89254837961354 4.2412795989478305 25.514384276961525 0.0 0.0 0.0
Cu 16.61180056865242 4.648217659423221 32.15919589893583 0.0 0.0 0.0
Cu 16.60831701608649 0.398752583338904 30.94731200789652 0.0 0.0 0.0
Cu 16.60823368267934 1.2939634949476442 33.41185402114635 0.0 0.0 0.0
Cu 16.612100055599438 3.8038399944332837 29.737857219990822 0.0 0.0 0.0
Cu 16.615998465362047 7.218550530009933 28.521332006892663 0.0 0.0 0.0
Cu 16.61232383395851 2.9381995438907564 27.337903323989867 0.0 0.0 0.0
Cu 16.615506508015226 6.34867061278854 26.083336620745797 0.0 0.0 0.0
Cu 16.612432742854324 2.1369377399462577 25.0 0.0 0.0 0.0
Cu 16.612330819370406 5.494735697163851 34.56476709593324 0.0 0.0 0.0
Cu 15.338619412539847 11.05544921438317 33.995836440569796 0.0 0.0 0.0
Cu 15.34179442012607 14.465927951393173 32.74126973732574 0.0 0.0 0.0
Cu 15.341690626944937 15.267189755337672 35.0791730613156 0.0 0.0 0.0
Cu 15.33812745519303 10.185569297161775 31.557841054422937 0.0 0.0 0.0
Cu 15.342023314199821 13.600287500850648 30.34131584132478 0.0 0.0 0.0
Cu 17.896562182897455 9.337262712772777 29.131839364998243 0.0 0.0 0.0
Cu 17.90018014114684 12.75590983586071 27.919977162379773 0.0 0.0 0.0
Cu 17.896645503572564 8.442051778735337 26.667319040169254 0.0 0.0 0.0
Cu 17.899649903160892 11.90939182054878 25.514384276961525 0.0 0.0 0.0
Cu 16.61890209219977 12.31632988102417 32.15919589893583 0.0 0.0 0.0
Cu 16.615418539633843 8.066864804939854 30.94731200789652 0.0 0.0 0.0
Cu 16.615335206226693 8.962075716548593 33.41185402114635 0.0 0.0 0.0
Cu 16.61920157914679 11.471952216034234 29.737857219990822 0.0 0.0 0.0
Cu 16.6230999889094 14.886662751610883 28.521332006892663 0.0 0.0 0.0
Cu 16.61942535750586 10.606311765491707 27.337903323989867 0.0 0.0 0.0
Cu 16.622608031562578 14.01678283438949 26.083336620745797 0.0 0.0 0.0
Cu 16.619534266401676 9.805049961547208 25.0 0.0 0.0 0.0
Cu 16.61943234291776 13.1628479187648 34.56476709593324 0.0 0.0 0.0
