# total energy = -859.9378319633622 ev

CRYSTAL
PRIMVEC
14.465628 0.0 0.0
0.0 11.43608434 0.0
0.0 -5.5449510944007185 66.53943082428088
PRIMCOORD
240 1 
Cu 0.0 -1.12366456632928 26.555426257115485 0.0 0.0 0.0
Cu 0.0 2.263642972719839 25.518740736169867 0.0 0.0 0.0
Cu 0.0 1.1053495303874297 27.762994308399392 0.0 0.0 0.0
Cu 1.8082034999999999 0.5605378503492127 26.005753202974002 0.0 0.0 0.0
Cu 1.8082034999999999 -1.7773603429009552 24.999999999999996 0.0 0.0 0.0
Cu 1.8082034999999999 2.8264001538699706 27.195124158592268 0.0 0.0 0.0
Cu 0.0 -0.0103101872323501 30.08341219506655 0.0 0.0 0.0
Cu 0.0 -2.297075365074299 28.91514767469245 0.0 0.0 0.0
Cu 0.0 2.2798869591167765 31.238282774739552 0.0 0.0 0.0
Cu 1.8082034999999999 1.703584877808462 29.49992492997474 0.0 0.0 0.0
Cu 1.8082034999999999 -0.5956993812704388 28.341294166129508 0.0 0.0 0.0
Cu 1.8082034999999999 -1.726200849172287 30.660861208202952 0.0 0.0 0.0
Cu 0.0 1.13609676119119 33.557163651818065 0.0 0.0 0.0
Cu 0.0 -1.1529705001606656 32.3977918297783 0.0 0.0 0.0
Cu 0.0 -2.295431824995873 34.719664386234726 0.0 0.0 0.0
Cu 1.8082034999999999 2.8490186157133133 32.98226717246282 0.0 0.0 0.0
Cu 1.8082034999999999 0.5625050319003766 31.81976643804616 0.0 0.0 0.0
Cu 1.8082034999999999 -0.579944856850491 34.141638994502586 0.0 0.0 0.0
Cu 0.0 2.281530499096042 37.039505894306146 0.0 0.0 0.0
Cu 0.0 -0.0067145078388684 35.878569616077925 0.0 0.0 0.0
Cu 0.0 -1.1372274118250578 38.19813665815138 0.0 0.0 0.0
Cu 1.8082034999999999 -1.722616605863147 36.45601862921433 0.0 0.0 0.0
Cu 1.8082034999999999 1.7052284177877264 35.30114804954133 0.0 0.0 0.0
Cu 1.8082034999999999 0.564160008063143 37.624283149588436 0.0 0.0 0.0
Cu 0.0 -2.29346464344471 40.53367762130688 0.0 0.0 0.0
Cu 0.0 1.1587266591188736 39.34430666568862 0.0 0.0 0.0
Cu 0.0 0.0444335498054593 41.539430824280885 0.0 0.0 0.0
Cu 1.8082034999999999 -0.6092622267662173 39.9840045671654 0.0 0.0 0.0
Cu 1.8082034999999999 -2.838276323482927 38.776436515881485 0.0 0.0 0.0
Cu 1.8082034999999999 1.7214838402690067 41.020690088111024 0.0 0.0 0.0
Cu 0.0 4.59437760367072 26.555426257115485 0.0 0.0 0.0
Cu 0.0 7.981685142719839 25.518740736169867 0.0 0.0 0.0
Cu 0.0 6.82339170038743 27.762994308399392 0.0 0.0 0.0
Cu 1.8082034999999999 6.278580020349213 26.005753202974002 0.0 0.0 0.0
Cu 1.8082034999999999 3.940681827099045 24.999999999999996 0.0 0.0 0.0
Cu 1.8082034999999999 8.544442323869971 27.195124158592268 0.0 0.0 0.0
Cu 0.0 5.70773198276765 30.08341219506655 0.0 0.0 0.0
Cu 0.0 3.420966804925701 28.91514767469245 0.0 0.0 0.0
Cu 0.0 7.997929129116777 31.238282774739552 0.0 0.0 0.0
Cu 1.8082034999999999 7.421627047808462 29.49992492997474 0.0 0.0 0.0
Cu 1.8082034999999999 5.122342788729561 28.341294166129508 0.0 0.0 0.0
Cu 1.8082034999999999 3.9918413208277133 30.660861208202952 0.0 0.0 0.0
Cu 0.0 6.854138931191191 33.557163651818065 0.0 0.0 0.0
Cu 0.0 4.565071669839335 32.3977918297783 0.0 0.0 0.0
Cu 0.0 3.422610345004127 34.719664386234726 0.0 0.0 0.0
Cu 1.8082034999999999 8.567060785713313 32.98226717246282 0.0 0.0 0.0
Cu 1.8082034999999999 6.280547201900377 31.81976643804616 0.0 0.0 0.0
Cu 1.8082034999999999 5.138097313149509 34.141638994502586 0.0 0.0 0.0
Cu 0.0 7.999572669096042 37.039505894306146 0.0 0.0 0.0
Cu 0.0 5.711327662161132 35.878569616077925 0.0 0.0 0.0
Cu 0.0 4.5808147581749425 38.19813665815138 0.0 0.0 0.0
Cu 1.8082034999999999 3.9954255641368537 36.45601862921433 0.0 0.0 0.0
Cu 1.8082034999999999 7.4232705877877265 35.30114804954133 0.0 0.0 0.0
Cu 1.8082034999999999 6.282202178063144 37.624283149588436 0.0 0.0 0.0
Cu 0.0 3.4245775265552902 40.53367762130688 0.0 0.0 0.0
Cu 0.0 6.876768829118874 39.34430666568862 0.0 0.0 0.0
Cu 0.0 5.76247571980546 41.539430824280885 0.0 0.0 0.0
Cu 1.8082034999999999 5.108779943233783 39.9840045671654 0.0 0.0 0.0
Cu 1.8082034999999999 2.8797658465170732 38.776436515881485 0.0 0.0 0.0
Cu 1.8082034999999999 7.439526010269007 41.020690088111024 0.0 0.0 0.0
Cu 3.616407 -1.12366456632928 26.555426257115485 0.0 0.0 0.0
Cu 3.616407 2.263642972719839 25.518740736169867 0.0 0.0 0.0
Cu 3.616407 1.1053495303874297 27.762994308399392 0.0 0.0 0.0
Cu 5.4246105 0.5605378503492127 26.005753202974002 0.0 0.0 0.0
Cu 5.4246105 -1.7773603429009552 24.999999999999996 0.0 0.0 0.0
Cu 5.4246105 2.8264001538699706 27.195124158592268 0.0 0.0 0.0
Cu 3.616407 -0.0103101872323501 30.08341219506655 0.0 0.0 0.0
Cu 3.616407 -2.297075365074299 28.91514767469245 0.0 0.0 0.0
Cu 3.616407 2.2798869591167765 31.238282774739552 0.0 0.0 0.0
Cu 5.4246105 1.703584877808462 29.49992492997474 0.0 0.0 0.0
Cu 5.4246105 -0.5956993812704388 28.341294166129508 0.0 0.0 0.0
Cu 5.4246105 -1.726200849172287 30.660861208202952 0.0 0.0 0.0
Cu 3.616407 1.13609676119119 33.557163651818065 0.0 0.0 0.0
Cu 3.616407 -1.1529705001606656 32.3977918297783 0.0 0.0 0.0
Cu 3.616407 -2.295431824995873 34.719664386234726 0.0 0.0 0.0
Cu 5.4246105 2.8490186157133133 32.98226717246282 0.0 0.0 0.0
Cu 5.4246105 0.5625050319003766 31.81976643804616 0.0 0.0 0.0
Cu 5.4246105 -0.579944856850491 34.141638994502586 0.0 0.0 0.0
Cu 3.616407 2.281530499096042 37.039505894306146 0.0 0.0 0.0
Cu 3.616407 -0.0067145078388684 35.878569616077925 0.0 0.0 0.0
Cu 3.616407 -1.1372274118250578 38.19813665815138 0.0 0.0 0.0
Cu 5.4246105 -1.722616605863147 36.45601862921433 0.0 0.0 0.0
Cu 5.4246105 1.7052284177877264 35.30114804954133 0.0 0.0 0.0
Cu 5.4246105 0.564160008063143 37.624283149588436 0.0 0.0 0.0
Cu 3.616407 -2.29346464344471 40.53367762130688 0.0 0.0 0.0
Cu 3.616407 1.1587266591188736 39.34430666568862 0.0 0.0 0.0
Cu 3.616407 0.0444335498054593 41.539430824280885 0.0 0.0 0.0
Cu 5.4246105 -0.6092622267662173 39.9840045671654 0.0 0.0 0.0
Cu 5.4246105 -2.838276323482927 38.776436515881485 0.0 0.0 0.0
Cu 5.4246105 1.7214838402690067 41.020690088111024 0.0 0.0 0.0
Cu 3.616407 4.59437760367072 26.555426257115485 0.0 0.0 0.0
Cu 3.616407 7.981685142719839 25.518740736169867 0.0 0.0 0.0
Cu 3.616407 6.82339170038743 27.762994308399392 0.0 0.0 0.0
Cu 5.4246105 6.278580020349213 26.005753202974002 0.0 0.0 0.0
Cu 5.4246105 3.940681827099045 24.999999999999996 0.0 0.0 0.0
Cu 5.4246105 8.544442323869971 27.195124158592268 0.0 0.0 0.0
Cu 3.616407 5.70773198276765 30.08341219506655 0.0 0.0 0.0
Cu 3.616407 3.420966804925701 28.91514767469245 0.0 0.0 0.0
Cu 3.616407 7.997929129116777 31.238282774739552 0.0 0.0 0.0
Cu 5.4246105 7.421627047808462 29.49992492997474 0.0 0.0 0.0
Cu 5.4246105 5.122342788729561 28.341294166129508 0.0 0.0 0.0
Cu 5.4246105 3.9918413208277133 30.660861208202952 0.0 0.0 0.0
Cu 3.616407 6.854138931191191 33.557163651818065 0.0 0.0 0.0
Cu 3.616407 4.565071669839335 32.3977918297783 0.0 0.0 0.0
Cu 3.616407 3.422610345004127 34.719664386234726 0.0 0.0 0.0
Cu 5.4246105 8.567060785713313 32.98226717246282 0.0 0.0 0.0
Cu 5.4246105 6.280547201900377 31.81976643804616 0.0 0.0 0.0
Cu 5.4246105 5.138097313149509 34.141638994502586 0.0 0.0 0.0
Cu 3.616407 7.999572669096042 37.039505894306146 0.0 0.0 0.0
Cu 3.616407 5.711327662161132 35.878569616077925 0.0 0.0 0.0
Cu 3.616407 4.5808147581749425 38.19813665815138 0.0 0.0 0.0
Cu 5.4246105 3.9954255641368537 36.45601862921433 0.0 0.0 0.0
Cu 5.4246105 7.4232705877877265 35.30114804954133 0.0 0.0 0.0
Cu 5.4246105 6.282202178063144 37.624283149588436 0.0 0.0 0.0
Cu 3.616407 3.4245775265552902 40.53367762130688 0.0 0.0 0.0
Cu 3.616407 6.876768829118874 39.34430666568862 0.0 0.0 0.0
Cu 3.616407 5.76247571980546 41.539430824280885 0.0 0.0 0.0
Cu 5.4246105 5.108779943233783 39.9840045671654 0.0 0.0 0.0
Cu 5.4246105 2.8797658465170732 38.776436515881485 0.0 0.0 0.0
Cu 5.4246105 7.439526010269007 41.020690088111024 0.0 0.0 0.0
Cu 7.232814 -1.12366456632928 26.555426257115485 0.0 0.0 0.0
Cu 7.232814 2.263642972719839 25.518740736169867 0.0 0.0 0.0
Cu 7.232814 1.1053495303874297 27.762994308399392 0.0 0.0 0.0
Cu 9.0410175 0.5605378503492127 26.005753202974002 0.0 0.0 0.0
Cu 9.0410175 -1.7773603429009552 24.999999999999996 0.0 0.0 0.0
Cu 9.0410175 2.8264001538699706 27.195124158592268 0.0 0.0 0.0
Cu 7.232814 -0.0103101872323501 30.08341219506655 0.0 0.0 0.0
Cu 7.232814 -2.297075365074299 28.91514767469245 0.0 0.0 0.0
Cu 7.232814 2.2798869591167765 31.238282774739552 0.0 0.0 0.0
Cu 9.0410175 1.703584877808462 29.49992492997474 0.0 0.0 0.0
Cu 9.0410175 -0.5956993812704388 28.341294166129508 0.0 0.0 0.0
Cu 9.0410175 -1.726200849172287 30.660861208202952 0.0 0.0 0.0
Cu 7.232814 1.13609676119119 33.557163651818065 0.0 0.0 0.0
Cu 7.232814 -1.1529705001606656 32.3977918297783 0.0 0.0 0.0
Cu 7.232814 -2.295431824995873 34.719664386234726 0.0 0.0 0.0
Cu 9.0410175 2.8490186157133133 32.98226717246282 0.0 0.0 0.0
Cu 9.0410175 0.5625050319003766 31.81976643804616 0.0 0.0 0.0
Cu 9.0410175 -0.579944856850491 34.141638994502586 0.0 0.0 0.0
Cu 7.232814 2.281530499096042 37.039505894306146 0.0 0.0 0.0
Cu 7.232814 -0.0067145078388684 35.878569616077925 0.0 0.0 0.0
Cu 7.232814 -1.1372274118250578 38.19813665815138 0.0 0.0 0.0
Cu 9.0410175 -1.722616605863147 36.45601862921433 0.0 0.0 0.0
Cu 9.0410175 1.7052284177877264 35.30114804954133 0.0 0.0 0.0
Cu 9.0410175 0.564160008063143 37.624283149588436 0.0 0.0 0.0
Cu 7.232814 -2.29346464344471 40.53367762130688 0.0 0.0 0.0
Cu 7.232814 1.1587266591188736 39.34430666568862 0.0 0.0 0.0
Cu 7.232814 0.0444335498054593 41.539430824280885 0.0 0.0 0.0
Cu 9.0410175 -0.6092622267662173 39.9840045671654 0.0 0.0 0.0
Cu 9.0410175 -2.838276323482927 38.776436515881485 0.0 0.0 0.0
Cu 9.0410175 1.7214838402690067 41.020690088111024 0.0 0.0 0.0
Cu 7.232814 4.59437760367072 26.555426257115485 0.0 0.0 0.0
Cu 7.232814 7.981685142719839 25.518740736169867 0.0 0.0 0.0
Cu 7.232814 6.82339170038743 27.762994308399392 0.0 0.0 0.0
Cu 9.0410175 6.278580020349213 26.005753202974002 0.0 0.0 0.0
Cu 9.0410175 3.940681827099045 24.999999999999996 0.0 0.0 0.0
Cu 9.0410175 8.544442323869971 27.195124158592268 0.0 0.0 0.0
Cu 7.232814 5.70773198276765 30.08341219506655 0.0 0.0 0.0
Cu 7.232814 3.420966804925701 28.91514767469245 0.0 0.0 0.0
Cu 7.232814 7.997929129116777 31.238282774739552 0.0 0.0 0.0
Cu 9.0410175 7.421627047808462 29.49992492997474 0.0 0.0 0.0
Cu 9.0410175 5.122342788729561 28.341294166129508 0.0 0.0 0.0
Cu 9.0410175 3.9918413208277133 30.660861208202952 0.0 0.0 0.0
Cu 7.232814 6.854138931191191 33.557163651818065 0.0 0.0 0.0
Cu 7.232814 4.565071669839335 32.3977918297783 0.0 0.0 0.0
Cu 7.232814 3.422610345004127 34.719664386234726 0.0 0.0 0.0
Cu 9.0410175 8.567060785713313 32.98226717246282 0.0 0.0 0.0
Cu 9.0410175 6.280547201900377 31.81976643804616 0.0 0.0 0.0
Cu 9.0410175 5.138097313149509 34.141638994502586 0.0 0.0 0.0
Cu 7.232814 7.999572669096042 37.039505894306146 0.0 0.0 0.0
Cu 7.232814 5.711327662161132 35.878569616077925 0.0 0.0 0.0
Cu 7.232814 4.5808147581749425 38.19813665815138 0.0 0.0 0.0
Cu 9.0410175 3.9954255641368537 36.45601862921433 0.0 0.0 0.0
Cu 9.0410175 7.4232705877877265 35.30114804954133 0.0 0.0 0.0
Cu 9.0410175 6.282202178063144 37.624283149588436 0.0 0.0 0.0
Cu 7.232814 3.4245775265552902 40.53367762130688 0.0 0.0 0.0
Cu 7.232814 6.876768829118874 39.34430666568862 0.0 0.0 0.0
Cu 7.232814 5.76247571980546 41.539430824280885 0.0 0.0 0.0
Cu 9.0410175 5.108779943233783 39.9840045671654 0.0 0.0 0.0
Cu 9.0410175 2.8797658465170732 38.776436515881485 0.0 0.0 0.0
Cu 9.0410175 7.439526010269007 41.020690088111024 0.0 0.0 0.0
Cu 10.849221 -1.12366456632928 26.555426257115485 0.0 0.0 0.0
Cu 10.849221 2.263642972719839 25.518740736169867 0.0 0.0 0.0
Cu 10.849221 1.1053495303874297 27.762994308399392 0.0 0.0 0.0
Cu 12.6574245 0.5605378503492127 26.005753202974002 0.0 0.0 0.0
Cu 12.6574245 -1.7773603429009552 24.999999999999996 0.0 0.0 0.0
Cu 12.6574245 2.8264001538699706 27.195124158592268 0.0 0.0 0.0
Cu 10.849221 -0.0103101872323501 30.08341219506655 0.0 0.0 0.0
Cu 10.849221 -2.297075365074299 28.91514767469245 0.0 0.0 0.0
Cu 10.849221 2.2798869591167765 31.238282774739552 0.0 0.0 0.0
Cu 12.6574245 1.703584877808462 29.49992492997474 0.0 0.0 0.0
Cu 12.6574245 -0.5956993812704388 28.341294166129508 0.0 0.0 0.0
Cu 12.6574245 -1.726200849172287 30.660861208202952 0.0 0.0 0.0
Cu 10.849221 1.13609676119119 33.557163651818065 0.0 0.0 0.0
Cu 10.849221 -1.1529705001606656 32.3977918297783 0.0 0.0 0.0
Cu 10.849221 -2.295431824995873 34.719664386234726 0.0 0.0 0.0
Cu 12.6574245 2.8490186157133133 32.98226717246282 0.0 0.0 0.0
Cu 12.6574245 0.5625050319003766 31.81976643804616 0.0 0.0 0.0
Cu 12.6574245 -0.579944856850491 34.141638994502586 0.0 0.0 0.0
Cu 10.849221 2.281530499096042 37.039505894306146 0.0 0.0 0.0
Cu 10.849221 -0.0067145078388684 35.878569616077925 0.0 0.0 0.0
Cu 10.849221 -1.1372274118250578 38.19813665815138 0.0 0.0 0.0
Cu 12.6574245 -1.722616605863147 36.45601862921433 0.0 0.0 0.0
Cu 12.6574245 1.7052284177877264 35.30114804954133 0.0 0.0 0.0
Cu 12.6574245 0.564160008063143 37.624283149588436 0.0 0.0 0.0
Cu 10.849221 -2.29346464344471 40.53367762130688 0.0 0.0 0.0
Cu 10.849221 1.1587266591188736 39.34430666568862 0.0 0.0 0.0
Cu 10.849221 0.0444335498054593 41.539430824280885 0.0 0.0 0.0
Cu 12.6574245 -0.6092622267662173 39.9840045671654 0.0 0.0 0.0
Cu 12.6574245 -2.838276323482927 38.776436515881485 0.0 0.0 0.0
Cu 12.6574245 1.7214838402690067 41.020690088111024 0.0 0.0 0.0
Cu 10.849221 4.59437760367072 26.555426257115485 0.0 0.0 0.0
Cu 10.849221 7.981685142719839 25.518740736169867 0.0 0.0 0.0
Cu 10.849221 6.82339170038743 27.762994308399392 0.0 0.0 0.0
Cu 12.6574245 6.278580020349213 26.005753202974002 0.0 0.0 0.0
Cu 12.6574245 3.940681827099045 24.999999999999996 0.0 0.0 0.0
Cu 12.6574245 8.544442323869971 27.195124158592268 0.0 0.0 0.0
Cu 10.849221 5.70773198276765 30.08341219506655 0.0 0.0 0.0
Cu 10.849221 3.420966804925701 28.91514767469245 0.0 0.0 0.0
Cu 10.849221 7.997929129116777 31.238282774739552 0.0 0.0 0.0
Cu 12.6574245 7.421627047808462 29.49992492997474 0.0 0.0 0.0
Cu 12.6574245 5.122342788729561 28.341294166129508 0.0 0.0 0.0
Cu 12.6574245 3.9918413208277133 30.660861208202952 0.0 0.0 0.0
Cu 10.849221 6.854138931191191 33.557163651818065 0.0 0.0 0.0
Cu 10.849221 4.565071669839335 32.3977918297783 0.0 0.0 0.0
Cu 10.849221 3.422610345004127 34.719664386234726 0.0 0.0 0.0
Cu 12.6574245 8.567060785713313 32.98226717246282 0.0 0.0 0.0
Cu 12.6574245 6.280547201900377 31.81976643804616 0.0 0.0 0.0
Cu 12.6574245 5.138097313149509 34.141638994502586 0.0 0.0 0.0
Cu 10.849221 7.999572669096042 37.039505894306146 0.0 0.0 0.0
Cu 10.849221 5.711327662161132 35.878569616077925 0.0 0.0 0.0
Cu 10.849221 4.5808147581749425 38.19813665815138 0.0 0.0 0.0
Cu 12.6574245 3.9954255641368537 36.45601862921433 0.0 0.0 0.0
Cu 12.6574245 7.4232705877877265 35.30114804954133 0.0 0.0 0.0
Cu 12.6574245 6.282202178063144 37.624283149588436 0.0 0.0 0.0
Cu 10.849221 3.4245775265552902 40.53367762130688 0.0 0.0 0.0
Cu 10.849221 6.876768829118874 39.34430666568862 0.0 0.0 0.0
Cu 10.849221 5.76247571980546 41.539430824280885 0.0 0.0 0.0
Cu 12.6574245 5.108779943233783 39.9840045671654 0.0 0.0 0.0
Cu 12.6574245 2.8797658465170732 38.776436515881485 0.0 0.0 0.0
Cu 12.6574245 7.439526010269007 41.020690088111024 0.0 0.0 0.0
