# total energy = -893.6144454740066 ev

CRYSTAL
PRIMVEC
17.89839576 0.0 0.0
3.8353726402370127 12.720133823028785 0.0
3.0255979273563134 0.9195279831876984 61.91798838268238
PRIMCOORD
252 1 
Cu 3.430486169803253 4.405264758795358 27.102557275571662 0.0 0.0 0.0
Cu 4.708941669270236 4.000076771817087 25.0 0.0 0.0 0.0
Cu 3.4304845054448427 2.072280989464827 25.95987732322304 0.0 0.0 0.0
Cu 3.430484621421236 2.8375169713845514 30.415923607004608 0.0 0.0 0.0
Cu 2.1520264457893634 2.460040676800301 28.204788843115907 0.0 0.0 0.0
Cu 3.430484239371992 0.5280232138883045 29.29752315083869 0.0 0.0 0.0
Cu 3.430486911187806 1.286185124853108 33.713199539566475 0.0 0.0 0.0
Cu 2.152028735555933 0.9087088302688575 31.502064775677773 0.0 0.0 0.0
Cu 4.708938962233951 3.2181983477204965 32.620465231843696 0.0 0.0 0.0
Cu 4.708942914452604 3.9861936375125833 36.91798838268238 0.0 0.0 0.0
Cu 3.4304847339195876 3.5810056505343124 34.81543110711072 0.0 0.0 0.0
Cu 2.1520250161611 1.6739405721439735 35.95811105945934 0.0 0.0 0.0
Cu 4.708943716548924 8.645309366471619 27.102557275571662 0.0 0.0 0.0
Cu 5.987399216015907 8.240121379493349 25.0 0.0 0.0 0.0
Cu 4.708942052190514 6.312325597141088 25.95987732322304 0.0 0.0 0.0
Cu 4.708942168166907 7.077561579060813 30.415923607004608 0.0 0.0 0.0
Cu 3.4304839925350343 6.700085284476563 28.204788843115907 0.0 0.0 0.0
Cu 4.708941786117663 4.768067821564566 29.29752315083869 0.0 0.0 0.0
Cu 4.708944457933477 5.526229732529369 33.713199539566475 0.0 0.0 0.0
Cu 3.430486282301604 5.148753437945119 31.502064775677773 0.0 0.0 0.0
Cu 5.9873965089796215 7.4582429553967575 32.620465231843696 0.0 0.0 0.0
Cu 5.987400461198275 8.226238245188846 36.91798838268238 0.0 0.0 0.0
Cu 4.7089422806652586 7.821050258210574 34.81543110711072 0.0 0.0 0.0
Cu 3.430482562906771 5.913985179820235 35.95811105945934 0.0 0.0 0.0
Cu 5.987401263294595 12.88535397414788 27.102557275571662 0.0 0.0 0.0
Cu 7.265856762761578 12.48016598716961 25.0 0.0 0.0 0.0
Cu 5.987399598936184 10.55237020481735 25.95987732322304 0.0 0.0 0.0
Cu 5.987399714912578 11.317606186737073 30.415923607004608 0.0 0.0 0.0
Cu 4.708941539280705 10.940129892152823 28.204788843115907 0.0 0.0 0.0
Cu 5.987399332863333 9.008112429240828 29.29752315083869 0.0 0.0 0.0
Cu 5.987402004679147 9.76627434020563 33.713199539566475 0.0 0.0 0.0
Cu 4.708943829047275 9.38879804562138 31.502064775677773 0.0 0.0 0.0
Cu 7.265854055725293 11.69828756307302 32.620465231843696 0.0 0.0 0.0
Cu 7.265858007943946 12.466282852865106 36.91798838268238 0.0 0.0 0.0
Cu 5.987399827410929 12.061094865886835 34.81543110711072 0.0 0.0 0.0
Cu 4.708940109652442 10.154029787496496 35.95811105945934 0.0 0.0 0.0
Cu 5.9873998498032535 4.405264758795358 27.102557275571662 0.0 0.0 0.0
Cu 7.265855349270236 4.000076771817087 25.0 0.0 0.0 0.0
Cu 5.987398185444842 2.072280989464827 25.95987732322304 0.0 0.0 0.0
Cu 5.987398301421236 2.8375169713845514 30.415923607004608 0.0 0.0 0.0
Cu 4.708940125789363 2.460040676800301 28.204788843115907 0.0 0.0 0.0
Cu 5.9873979193719915 0.5280232138883045 29.29752315083869 0.0 0.0 0.0
Cu 5.987400591187805 1.286185124853108 33.713199539566475 0.0 0.0 0.0
Cu 4.708942415555933 0.9087088302688575 31.502064775677773 0.0 0.0 0.0
Cu 7.265852642233951 3.2181983477204965 32.620465231843696 0.0 0.0 0.0
Cu 7.265856594452604 3.9861936375125833 36.91798838268238 0.0 0.0 0.0
Cu 5.987398413919587 3.5810056505343124 34.81543110711072 0.0 0.0 0.0
Cu 4.7089386961611 1.6739405721439735 35.95811105945934 0.0 0.0 0.0
Cu 7.265857396548924 8.645309366471619 27.102557275571662 0.0 0.0 0.0
Cu 8.544312896015906 8.240121379493349 25.0 0.0 0.0 0.0
Cu 7.265855732190514 6.312325597141088 25.95987732322304 0.0 0.0 0.0
Cu 7.2658558481669075 7.077561579060813 30.415923607004608 0.0 0.0 0.0
Cu 5.987397672535034 6.700085284476563 28.204788843115907 0.0 0.0 0.0
Cu 7.265855466117663 4.768067821564566 29.29752315083869 0.0 0.0 0.0
Cu 7.265858137933477 5.526229732529369 33.713199539566475 0.0 0.0 0.0
Cu 5.987399962301604 5.148753437945119 31.502064775677773 0.0 0.0 0.0
Cu 8.544310188979622 7.4582429553967575 32.620465231843696 0.0 0.0 0.0
Cu 8.544314141198274 8.226238245188846 36.91798838268238 0.0 0.0 0.0
Cu 7.265855960665259 7.821050258210574 34.81543110711072 0.0 0.0 0.0
Cu 5.987396242906771 5.913985179820235 35.95811105945934 0.0 0.0 0.0
Cu 8.544314943294594 12.88535397414788 27.102557275571662 0.0 0.0 0.0
Cu 9.822770442761577 12.48016598716961 25.0 0.0 0.0 0.0
Cu 8.544313278936185 10.55237020481735 25.95987732322304 0.0 0.0 0.0
Cu 8.544313394912578 11.317606186737073 30.415923607004608 0.0 0.0 0.0
Cu 7.265855219280706 10.940129892152823 28.204788843115907 0.0 0.0 0.0
Cu 8.544313012863334 9.008112429240828 29.29752315083869 0.0 0.0 0.0
Cu 8.544315684679148 9.76627434020563 33.713199539566475 0.0 0.0 0.0
Cu 7.265857509047275 9.38879804562138 31.502064775677773 0.0 0.0 0.0
Cu 9.822767735725293 11.69828756307302 32.620465231843696 0.0 0.0 0.0
Cu 9.822771687943945 12.466282852865106 36.91798838268238 0.0 0.0 0.0
Cu 8.54431350741093 12.061094865886835 34.81543110711072 0.0 0.0 0.0
Cu 7.265853789652442 10.154029787496496 35.95811105945934 0.0 0.0 0.0
Cu 8.544313529803253 4.405264758795358 27.102557275571662 0.0 0.0 0.0
Cu 9.822769029270237 4.000076771817087 25.0 0.0 0.0 0.0
Cu 8.544311865444843 2.072280989464827 25.95987732322304 0.0 0.0 0.0
Cu 8.544311981421236 2.8375169713845514 30.415923607004608 0.0 0.0 0.0
Cu 7.265853805789364 2.460040676800301 28.204788843115907 0.0 0.0 0.0
Cu 8.544311599371992 0.5280232138883045 29.29752315083869 0.0 0.0 0.0
Cu 8.544314271187806 1.286185124853108 33.713199539566475 0.0 0.0 0.0
Cu 7.265856095555933 0.9087088302688575 31.502064775677773 0.0 0.0 0.0
Cu 9.822766322233951 3.2181983477204965 32.620465231843696 0.0 0.0 0.0
Cu 9.822770274452605 3.9861936375125833 36.91798838268238 0.0 0.0 0.0
Cu 8.544312093919588 3.5810056505343124 34.81543110711072 0.0 0.0 0.0
Cu 7.2658523761611 1.6739405721439735 35.95811105945934 0.0 0.0 0.0
Cu 9.822771076548923 8.645309366471619 27.102557275571662 0.0 0.0 0.0
Cu 11.101226576015907 8.240121379493349 25.0 0.0 0.0 0.0
Cu 9.822769412190514 6.312325597141088 25.95987732322304 0.0 0.0 0.0
Cu 9.822769528166907 7.077561579060813 30.415923607004608 0.0 0.0 0.0
Cu 8.544311352535034 6.700085284476563 28.204788843115907 0.0 0.0 0.0
Cu 9.822769146117663 4.768067821564566 29.29752315083869 0.0 0.0 0.0
Cu 9.822771817933477 5.526229732529369 33.713199539566475 0.0 0.0 0.0
Cu 8.544313642301603 5.148753437945119 31.502064775677773 0.0 0.0 0.0
Cu 11.101223868979622 7.4582429553967575 32.620465231843696 0.0 0.0 0.0
Cu 11.101227821198275 8.226238245188846 36.91798838268238 0.0 0.0 0.0
Cu 9.822769640665259 7.821050258210574 34.81543110711072 0.0 0.0 0.0
Cu 8.54430992290677 5.913985179820235 35.95811105945934 0.0 0.0 0.0
Cu 11.101228623294595 12.88535397414788 27.102557275571662 0.0 0.0 0.0
Cu 12.379684122761578 12.48016598716961 25.0 0.0 0.0 0.0
Cu 11.101226958936184 10.55237020481735 25.95987732322304 0.0 0.0 0.0
Cu 11.101227074912579 11.317606186737073 30.415923607004608 0.0 0.0 0.0
Cu 9.822768899280705 10.940129892152823 28.204788843115907 0.0 0.0 0.0
Cu 11.101226692863333 9.008112429240828 29.29752315083869 0.0 0.0 0.0
Cu 11.101229364679147 9.76627434020563 33.713199539566475 0.0 0.0 0.0
Cu 9.822771189047275 9.38879804562138 31.502064775677773 0.0 0.0 0.0
Cu 12.379681415725294 11.69828756307302 32.620465231843696 0.0 0.0 0.0
Cu 12.379685367943946 12.466282852865106 36.91798838268238 0.0 0.0 0.0
Cu 11.10122718741093 12.061094865886835 34.81543110711072 0.0 0.0 0.0
Cu 9.822767469652442 10.154029787496496 35.95811105945934 0.0 0.0 0.0
Cu 11.101227209803254 4.405264758795358 27.102557275571662 0.0 0.0 0.0
Cu 12.379682709270236 4.000076771817087 25.0 0.0 0.0 0.0
Cu 11.101225545444843 2.072280989464827 25.95987732322304 0.0 0.0 0.0
Cu 11.101225661421235 2.8375169713845514 30.415923607004608 0.0 0.0 0.0
Cu 9.822767485789363 2.460040676800301 28.204788843115907 0.0 0.0 0.0
Cu 11.101225279371992 0.5280232138883045 29.29752315083869 0.0 0.0 0.0
Cu 11.101227951187806 1.286185124853108 33.713199539566475 0.0 0.0 0.0
Cu 9.822769775555933 0.9087088302688575 31.502064775677773 0.0 0.0 0.0
Cu 12.37968000223395 3.2181983477204965 32.620465231843696 0.0 0.0 0.0
Cu 12.379683954452604 3.9861936375125833 36.91798838268238 0.0 0.0 0.0
Cu 11.101225773919587 3.5810056505343124 34.81543110711072 0.0 0.0 0.0
Cu 9.8227660561611 1.6739405721439735 35.95811105945934 0.0 0.0 0.0
Cu 12.379684756548924 8.645309366471619 27.102557275571662 0.0 0.0 0.0
Cu 13.658140256015908 8.240121379493349 25.0 0.0 0.0 0.0
Cu 12.379683092190515 6.312325597141088 25.95987732322304 0.0 0.0 0.0
Cu 12.379683208166908 7.077561579060813 30.415923607004608 0.0 0.0 0.0
Cu 11.101225032535035 6.700085284476563 28.204788843115907 0.0 0.0 0.0
Cu 12.379682826117664 4.768067821564566 29.29752315083869 0.0 0.0 0.0
Cu 12.379685497933478 5.526229732529369 33.713199539566475 0.0 0.0 0.0
Cu 11.101227322301604 5.148753437945119 31.502064775677773 0.0 0.0 0.0
Cu 13.658137548979623 7.4582429553967575 32.620465231843696 0.0 0.0 0.0
Cu 13.658141501198276 8.226238245188846 36.91798838268238 0.0 0.0 0.0
Cu 12.37968332066526 7.821050258210574 34.81543110711072 0.0 0.0 0.0
Cu 11.10122360290677 5.913985179820235 35.95811105945934 0.0 0.0 0.0
Cu 13.658142303294595 12.88535397414788 27.102557275571662 0.0 0.0 0.0
Cu 14.936597802761579 12.48016598716961 25.0 0.0 0.0 0.0
Cu 13.658140638936185 10.55237020481735 25.95987732322304 0.0 0.0 0.0
Cu 13.658140754912578 11.317606186737073 30.415923607004608 0.0 0.0 0.0
Cu 12.379682579280706 10.940129892152823 28.204788843115907 0.0 0.0 0.0
Cu 13.658140372863334 9.008112429240828 29.29752315083869 0.0 0.0 0.0
Cu 13.658143044679148 9.76627434020563 33.713199539566475 0.0 0.0 0.0
Cu 12.379684869047274 9.38879804562138 31.502064775677773 0.0 0.0 0.0
Cu 14.936595095725293 11.69828756307302 32.620465231843696 0.0 0.0 0.0
Cu 14.936599047943947 12.466282852865106 36.91798838268238 0.0 0.0 0.0
Cu 13.65814086741093 12.061094865886835 34.81543110711072 0.0 0.0 0.0
Cu 12.379681149652441 10.154029787496496 35.95811105945934 0.0 0.0 0.0
Cu 13.658140889803253 4.405264758795358 27.102557275571662 0.0 0.0 0.0
Cu 14.936596389270235 4.000076771817087 25.0 0.0 0.0 0.0
Cu 13.658139225444843 2.072280989464827 25.95987732322304 0.0 0.0 0.0
Cu 13.658139341421236 2.8375169713845514 30.415923607004608 0.0 0.0 0.0
Cu 12.379681165789364 2.460040676800301 28.204788843115907 0.0 0.0 0.0
Cu 13.658138959371993 0.5280232138883045 29.29752315083869 0.0 0.0 0.0
Cu 13.658141631187807 1.286185124853108 33.713199539566475 0.0 0.0 0.0
Cu 12.379683455555934 0.9087088302688575 31.502064775677773 0.0 0.0 0.0
Cu 14.936593682233951 3.2181983477204965 32.620465231843696 0.0 0.0 0.0
Cu 14.936597634452603 3.9861936375125833 36.91798838268238 0.0 0.0 0.0
Cu 13.658139453919588 3.5810056505343124 34.81543110711072 0.0 0.0 0.0
Cu 12.379679736161101 1.6739405721439735 35.95811105945934 0.0 0.0 0.0
Cu 14.936598436548923 8.645309366471619 27.102557275571662 0.0 0.0 0.0
Cu 16.215053936015906 8.240121379493349 25.0 0.0 0.0 0.0
Cu 14.936596772190514 6.312325597141088 25.95987732322304 0.0 0.0 0.0
Cu 14.936596888166907 7.077561579060813 30.415923607004608 0.0 0.0 0.0
Cu 13.658138712535035 6.700085284476563 28.204788843115907 0.0 0.0 0.0
Cu 14.936596506117663 4.768067821564566 29.29752315083869 0.0 0.0 0.0
Cu 14.936599177933477 5.526229732529369 33.713199539566475 0.0 0.0 0.0
Cu 13.658141002301605 5.148753437945119 31.502064775677773 0.0 0.0 0.0
Cu 16.215051228979622 7.4582429553967575 32.620465231843696 0.0 0.0 0.0
Cu 16.215055181198274 8.226238245188846 36.91798838268238 0.0 0.0 0.0
Cu 14.936597000665259 7.821050258210574 34.81543110711072 0.0 0.0 0.0
Cu 13.658137282906772 5.913985179820235 35.95811105945934 0.0 0.0 0.0
Cu 16.215055983294594 12.88535397414788 27.102557275571662 0.0 0.0 0.0
Cu 17.493511482761576 12.48016598716961 25.0 0.0 0.0 0.0
Cu 16.215054318936183 10.55237020481735 25.95987732322304 0.0 0.0 0.0
Cu 16.215054434912577 11.317606186737073 30.415923607004608 0.0 0.0 0.0
Cu 14.936596259280705 10.940129892152823 28.204788843115907 0.0 0.0 0.0
Cu 16.215054052863334 9.008112429240828 29.29752315083869 0.0 0.0 0.0
Cu 16.215056724679147 9.76627434020563 33.713199539566475 0.0 0.0 0.0
Cu 14.936598549047275 9.38879804562138 31.502064775677773 0.0 0.0 0.0
Cu 17.493508775725292 11.69828756307302 32.620465231843696 0.0 0.0 0.0
Cu 17.493512727943944 12.466282852865106 36.91798838268238 0.0 0.0 0.0
Cu 16.21505454741093 12.061094865886835 34.81543110711072 0.0 0.0 0.0
Cu 14.936594829652442 10.154029787496496 35.95811105945934 0.0 0.0 0.0
Cu 16.215054569803254 4.405264758795358 27.102557275571662 0.0 0.0 0.0
Cu 17.493510069270236 4.000076771817087 25.0 0.0 0.0 0.0
Cu 16.215052905444843 2.072280989464827 25.95987732322304 0.0 0.0 0.0
Cu 16.215053021421237 2.8375169713845514 30.415923607004608 0.0 0.0 0.0
Cu 14.936594845789365 2.460040676800301 28.204788843115907 0.0 0.0 0.0
Cu 16.215052639371994 0.5280232138883045 29.29752315083869 0.0 0.0 0.0
Cu 16.215055311187808 1.286185124853108 33.713199539566475 0.0 0.0 0.0
Cu 14.936597135555935 0.9087088302688575 31.502064775677773 0.0 0.0 0.0
Cu 17.493507362233952 3.2181983477204965 32.620465231843696 0.0 0.0 0.0
Cu 17.493511314452604 3.9861936375125833 36.91798838268238 0.0 0.0 0.0
Cu 16.21505313391959 3.5810056505343124 34.81543110711072 0.0 0.0 0.0
Cu 14.936593416161102 1.6739405721439735 35.95811105945934 0.0 0.0 0.0
Cu 17.493512116548924 8.645309366471619 27.102557275571662 0.0 0.0 0.0
Cu 18.771967616015907 8.240121379493349 25.0 0.0 0.0 0.0
Cu 17.493510452190513 6.312325597141088 25.95987732322304 0.0 0.0 0.0
Cu 17.493510568166908 7.077561579060813 30.415923607004608 0.0 0.0 0.0
Cu 16.215052392535036 6.700085284476563 28.204788843115907 0.0 0.0 0.0
Cu 17.493510186117664 4.768067821564566 29.29752315083869 0.0 0.0 0.0
Cu 17.493512857933478 5.526229732529369 33.713199539566475 0.0 0.0 0.0
Cu 16.215054682301606 5.148753437945119 31.502064775677773 0.0 0.0 0.0
Cu 18.771964908979623 7.4582429553967575 32.620465231843696 0.0 0.0 0.0
Cu 18.771968861198275 8.226238245188846 36.91798838268238 0.0 0.0 0.0
Cu 17.49351068066526 7.821050258210574 34.81543110711072 0.0 0.0 0.0
Cu 16.215050962906773 5.913985179820235 35.95811105945934 0.0 0.0 0.0
Cu 18.771969663294595 12.88535397414788 27.102557275571662 0.0 0.0 0.0
Cu 20.050425162761577 12.48016598716961 25.0 0.0 0.0 0.0
Cu 18.771967998936184 10.55237020481735 25.95987732322304 0.0 0.0 0.0
Cu 18.77196811491258 11.317606186737073 30.415923607004608 0.0 0.0 0.0
Cu 17.493509939280706 10.940129892152823 28.204788843115907 0.0 0.0 0.0
Cu 18.771967732863335 9.008112429240828 29.29752315083869 0.0 0.0 0.0
Cu 18.77197040467915 9.76627434020563 33.713199539566475 0.0 0.0 0.0
Cu 17.493512229047276 9.38879804562138 31.502064775677773 0.0 0.0 0.0
Cu 20.050422455725293 11.69828756307302 32.620465231843696 0.0 0.0 0.0
Cu 20.050426407943945 12.466282852865106 36.91798838268238 0.0 0.0 0.0
Cu 18.77196822741093 12.061094865886835 34.81543110711072 0.0 0.0 0.0
Cu 17.493508509652443 10.154029787496496 35.95811105945934 0.0 0.0 0.0
Cu 18.771968249803255 4.405264758795358 27.102557275571662 0.0 0.0 0.0
Cu 20.050423749270237 4.000076771817087 25.0 0.0 0.0 0.0
Cu 18.771966585444844 2.072280989464827 25.95987732322304 0.0 0.0 0.0
Cu 18.771966701421235 2.8375169713845514 30.415923607004608 0.0 0.0 0.0
Cu 17.493508525789363 2.460040676800301 28.204788843115907 0.0 0.0 0.0
Cu 18.77196631937199 0.5280232138883045 29.29752315083869 0.0 0.0 0.0
Cu 18.771968991187805 1.286185124853108 33.713199539566475 0.0 0.0 0.0
Cu 17.493510815555933 0.9087088302688575 31.502064775677773 0.0 0.0 0.0
Cu 20.05042104223395 3.2181983477204965 32.620465231843696 0.0 0.0 0.0
Cu 20.050424994452605 3.9861936375125833 36.91798838268238 0.0 0.0 0.0
Cu 18.771966813919587 3.5810056505343124 34.81543110711072 0.0 0.0 0.0
Cu 17.4935070961611 1.6739405721439735 35.95811105945934 0.0 0.0 0.0
Cu 20.050425796548925 8.645309366471619 27.102557275571662 0.0 0.0 0.0
Cu 21.328881296015908 8.240121379493349 25.0 0.0 0.0 0.0
Cu 20.050424132190514 6.312325597141088 25.95987732322304 0.0 0.0 0.0
Cu 20.05042424816691 7.077561579060813 30.415923607004608 0.0 0.0 0.0
Cu 18.771966072535037 6.700085284476563 28.204788843115907 0.0 0.0 0.0
Cu 20.050423866117665 4.768067821564566 29.29752315083869 0.0 0.0 0.0
Cu 20.05042653793348 5.526229732529369 33.713199539566475 0.0 0.0 0.0
Cu 18.771968362301607 5.148753437945119 31.502064775677773 0.0 0.0 0.0
Cu 21.328878588979624 7.4582429553967575 32.620465231843696 0.0 0.0 0.0
Cu 21.328882541198276 8.226238245188846 36.91798838268238 0.0 0.0 0.0
Cu 20.05042436066526 7.821050258210574 34.81543110711072 0.0 0.0 0.0
Cu 18.771964642906774 5.913985179820235 35.95811105945934 0.0 0.0 0.0
Cu 21.328883343294596 12.88535397414788 27.102557275571662 0.0 0.0 0.0
Cu 22.60733884276158 12.48016598716961 25.0 0.0 0.0 0.0
Cu 21.328881678936185 10.55237020481735 25.95987732322304 0.0 0.0 0.0
Cu 21.32888179491258 11.317606186737073 30.415923607004608 0.0 0.0 0.0
Cu 20.050423619280707 10.940129892152823 28.204788843115907 0.0 0.0 0.0
Cu 21.328881412863335 9.008112429240828 29.29752315083869 0.0 0.0 0.0
Cu 21.32888408467915 9.76627434020563 33.713199539566475 0.0 0.0 0.0
Cu 20.050425909047277 9.38879804562138 31.502064775677773 0.0 0.0 0.0
Cu 22.607336135725294 11.69828756307302 32.620465231843696 0.0 0.0 0.0
Cu 22.607340087943946 12.466282852865106 36.91798838268238 0.0 0.0 0.0
Cu 21.32888190741093 12.061094865886835 34.81543110711072 0.0 0.0 0.0
Cu 20.050422189652444 10.154029787496496 35.95811105945934 0.0 0.0 0.0
