# total energy = -854.6416572402122 ev

CRYSTAL
PRIMVEC
14.460292 0.0 0.0
3.615071997966963 13.026804878417138 0.0
3.8663493703145657 1.0260155718078696 64.4123567403955
PRIMCOORD
240 1 
Cu 4.644479085562649 5.8182250686378465 28.416779614107945 0.0 0.0 0.0
Cu 4.644479084359032 4.820453165845574 33.46737401465259 0.0 0.0 0.0
Cu 4.644479082508899 3.8291949929974893 38.52739380645636 0.0 0.0 0.0
Cu 2.836942886266815 2.3234716124482646 26.350962709449824 0.0 0.0 0.0
Cu 2.8369428851613865 1.3151241370833162 31.447901126441064 0.0 0.0 0.0
Cu 4.644480690923164 6.825036663556807 36.49813417013233 0.0 0.0 0.0
Cu 6.452015684454433 2.3262939641607434 39.412356740395495 0.0 0.0 0.0
Cu 2.8369444924934832 4.325282140065632 29.417406854201296 0.0 0.0 0.0
Cu 6.4520174919048285 3.3168931378836404 34.48107032761003 0.0 0.0 0.0
Cu 4.644477679472038 0.800643548000771 27.413231406116388 0.0 0.0 0.0
Cu 6.4520154841325965 6.325011308951473 32.462771849172 0.0 0.0 0.0
Cu 6.452015483341526 5.310015113015039 37.57247820831617 0.0 0.0 0.0
Cu 4.644479285759539 3.8108046512584086 25.45040120467291 0.0 0.0 0.0
Cu 4.644477477624561 2.8181385285829097 30.436342841532813 0.0 0.0 0.0
Cu 4.644477476854568 1.812360794973691 35.4987415659547 0.0 0.0 0.0
Cu 2.8369426855499125 4.8347638736848255 26.83987853207933 0.0 0.0 0.0
Cu 2.836942684758844 3.8197676777483927 31.949584891223495 0.0 0.0 0.0
Cu 6.452017490435919 2.830732999490526 36.9991253342791 0.0 0.0 0.0
Cu 4.644479485453526 1.3050825833305537 24.999999999999996 0.0 0.0 0.0
Cu 6.45201367698661 6.827885848816224 29.93128641278546 0.0 0.0 0.0
Cu 6.452013676397956 5.819496846634235 34.99494988619419 0.0 0.0 0.0
Cu 4.644477477968277 3.3197423231430587 27.914222570263167 0.0 0.0 0.0
Cu 4.644479284746572 2.3162524104079805 32.96445561395443 0.0 0.0 0.0
Cu 4.644479283641144 1.307904935043032 38.06139403094567 0.0 0.0 0.0
Cu 4.644479086382541 6.3155839937023766 25.884962933939136 0.0 0.0 0.0
Cu 4.644479084532408 5.324325820854291 30.944982725742904 0.0 0.0 0.0
Cu 4.6444790833287914 4.32655391806202 35.99557712628756 0.0 0.0 0.0
Cu 2.8369446930533915 1.8190157525176063 28.913615174440793 0.0 0.0 0.0
Cu 2.8369446922833976 0.8132380189083874 33.976013898862675 0.0 0.0 0.0
Cu 4.644478883131901 6.333974335441457 38.96195553572258 0.0 0.0 0.0
Cu 6.45201508454613 12.331627507846417 28.416779614107945 0.0 0.0 0.0
Cu 6.452015083342514 11.333855605054143 33.46737401465259 0.0 0.0 0.0
Cu 6.45201508149238 10.342597432206059 38.52739380645636 0.0 0.0 0.0
Cu 4.6444788852502965 8.836874051656833 26.350962709449824 0.0 0.0 0.0
Cu 4.644478884144868 7.828526576291885 31.447901126441064 0.0 0.0 0.0
Cu 6.452016689906645 13.338439102765376 36.49813417013233 0.0 0.0 0.0
Cu 8.259551683437914 8.839696403369313 39.412356740395495 0.0 0.0 0.0
Cu 4.644480491476965 10.8386845792742 29.417406854201296 0.0 0.0 0.0
Cu 8.25955349088831 9.83029557709221 34.48107032761003 0.0 0.0 0.0
Cu 6.452013678455519 7.31404598720934 27.413231406116388 0.0 0.0 0.0
Cu 8.259551483116079 12.838413748160043 32.462771849172 0.0 0.0 0.0
Cu 8.259551482325008 11.823417552223608 37.57247820831617 0.0 0.0 0.0
Cu 6.4520152847430206 10.324207090466977 25.45040120467291 0.0 0.0 0.0
Cu 6.452013476608043 9.33154096779148 30.436342841532813 0.0 0.0 0.0
Cu 6.452013475838049 8.32576323418226 35.4987415659547 0.0 0.0 0.0
Cu 4.644478684533394 11.348166312893394 26.83987853207933 0.0 0.0 0.0
Cu 4.644478683742325 10.333170116956962 31.949584891223495 0.0 0.0 0.0
Cu 8.259553489419401 9.344135438699094 36.9991253342791 0.0 0.0 0.0
Cu 6.452015484437007 7.818485022539123 24.999999999999996 0.0 0.0 0.0
Cu 8.259549675970092 13.341288288024792 29.93128641278546 0.0 0.0 0.0
Cu 8.259549675381438 12.332899285842803 34.99494988619419 0.0 0.0 0.0
Cu 6.452013476951758 9.833144762351628 27.914222570263167 0.0 0.0 0.0
Cu 6.452015283730053 8.82965484961655 32.96445561395443 0.0 0.0 0.0
Cu 6.452015282624625 7.821307374251601 38.06139403094567 0.0 0.0 0.0
Cu 6.452015085366022 12.828986432910945 25.884962933939136 0.0 0.0 0.0
Cu 6.45201508351589 11.83772826006286 30.944982725742904 0.0 0.0 0.0
Cu 6.452015082312273 10.839956357270589 35.99557712628756 0.0 0.0 0.0
Cu 4.644480692036873 8.332418191726175 28.913615174440793 0.0 0.0 0.0
Cu 4.644480691266879 7.326640458116957 33.976013898862675 0.0 0.0 0.0
Cu 6.452014882115383 12.847376774650026 38.96195553572258 0.0 0.0 0.0
Cu 8.25955208556265 5.8182250686378465 28.416779614107945 0.0 0.0 0.0
Cu 8.259552084359033 4.820453165845574 33.46737401465259 0.0 0.0 0.0
Cu 8.259552082508899 3.8291949929974893 38.52739380645636 0.0 0.0 0.0
Cu 6.452015886266816 2.3234716124482646 26.350962709449824 0.0 0.0 0.0
Cu 6.452015885161387 1.3151241370833162 31.447901126441064 0.0 0.0 0.0
Cu 8.259553690923164 6.825036663556807 36.49813417013233 0.0 0.0 0.0
Cu 10.067088684454433 2.3262939641607434 39.412356740395495 0.0 0.0 0.0
Cu 6.452017492493484 4.325282140065632 29.417406854201296 0.0 0.0 0.0
Cu 10.067090491904828 3.3168931378836404 34.48107032761003 0.0 0.0 0.0
Cu 8.259550679472039 0.800643548000771 27.413231406116388 0.0 0.0 0.0
Cu 10.067088484132597 6.325011308951473 32.462771849172 0.0 0.0 0.0
Cu 10.067088483341527 5.310015113015039 37.57247820831617 0.0 0.0 0.0
Cu 8.25955228575954 3.8108046512584086 25.45040120467291 0.0 0.0 0.0
Cu 8.259550477624561 2.8181385285829097 30.436342841532813 0.0 0.0 0.0
Cu 8.259550476854567 1.812360794973691 35.4987415659547 0.0 0.0 0.0
Cu 6.452015685549913 4.8347638736848255 26.83987853207933 0.0 0.0 0.0
Cu 6.452015684758845 3.8197676777483927 31.949584891223495 0.0 0.0 0.0
Cu 10.06709049043592 2.830732999490526 36.9991253342791 0.0 0.0 0.0
Cu 8.259552485453526 1.3050825833305537 24.999999999999996 0.0 0.0 0.0
Cu 10.06708667698661 6.827885848816224 29.93128641278546 0.0 0.0 0.0
Cu 10.067086676397956 5.819496846634235 34.99494988619419 0.0 0.0 0.0
Cu 8.259550477968277 3.3197423231430587 27.914222570263167 0.0 0.0 0.0
Cu 8.259552284746572 2.3162524104079805 32.96445561395443 0.0 0.0 0.0
Cu 8.259552283641144 1.307904935043032 38.06139403094567 0.0 0.0 0.0
Cu 8.259552086382541 6.3155839937023766 25.884962933939136 0.0 0.0 0.0
Cu 8.259552084532409 5.324325820854291 30.944982725742904 0.0 0.0 0.0
Cu 8.259552083328792 4.32655391806202 35.99557712628756 0.0 0.0 0.0
Cu 6.452017693053392 1.8190157525176063 28.913615174440793 0.0 0.0 0.0
Cu 6.452017692283398 0.8132380189083874 33.976013898862675 0.0 0.0 0.0
Cu 8.259551883131902 6.333974335441457 38.96195553572258 0.0 0.0 0.0
Cu 10.067088084546132 12.331627507846417 28.416779614107945 0.0 0.0 0.0
Cu 10.067088083342515 11.333855605054143 33.46737401465259 0.0 0.0 0.0
Cu 10.06708808149238 10.342597432206059 38.52739380645636 0.0 0.0 0.0
Cu 8.259551885250296 8.836874051656833 26.350962709449824 0.0 0.0 0.0
Cu 8.25955188414487 7.828526576291885 31.447901126441064 0.0 0.0 0.0
Cu 10.067089689906645 13.338439102765376 36.49813417013233 0.0 0.0 0.0
Cu 11.874624683437915 8.839696403369313 39.412356740395495 0.0 0.0 0.0
Cu 8.259553491476964 10.8386845792742 29.417406854201296 0.0 0.0 0.0
Cu 11.87462649088831 9.83029557709221 34.48107032761003 0.0 0.0 0.0
Cu 10.06708667845552 7.31404598720934 27.413231406116388 0.0 0.0 0.0
Cu 11.87462448311608 12.838413748160043 32.462771849172 0.0 0.0 0.0
Cu 11.874624482325007 11.823417552223608 37.57247820831617 0.0 0.0 0.0
Cu 10.067088284743022 10.324207090466977 25.45040120467291 0.0 0.0 0.0
Cu 10.067086476608043 9.33154096779148 30.436342841532813 0.0 0.0 0.0
Cu 10.06708647583805 8.32576323418226 35.4987415659547 0.0 0.0 0.0
Cu 8.259551684533395 11.348166312893394 26.83987853207933 0.0 0.0 0.0
Cu 8.259551683742327 10.333170116956962 31.949584891223495 0.0 0.0 0.0
Cu 11.874626489419402 9.344135438699094 36.9991253342791 0.0 0.0 0.0
Cu 10.067088484437008 7.818485022539123 24.999999999999996 0.0 0.0 0.0
Cu 11.874622675970091 13.341288288024792 29.93128641278546 0.0 0.0 0.0
Cu 11.874622675381438 12.332899285842803 34.99494988619419 0.0 0.0 0.0
Cu 10.067086476951758 9.833144762351628 27.914222570263167 0.0 0.0 0.0
Cu 10.067088283730055 8.82965484961655 32.96445561395443 0.0 0.0 0.0
Cu 10.067088282624626 7.821307374251601 38.06139403094567 0.0 0.0 0.0
Cu 10.067088085366024 12.828986432910945 25.884962933939136 0.0 0.0 0.0
Cu 10.067088083515891 11.83772826006286 30.944982725742904 0.0 0.0 0.0
Cu 10.067088082312274 10.839956357270589 35.99557712628756 0.0 0.0 0.0
Cu 8.259553692036874 8.332418191726175 28.913615174440793 0.0 0.0 0.0
Cu 8.25955369126688 7.326640458116957 33.976013898862675 0.0 0.0 0.0
Cu 10.067087882115384 12.847376774650026 38.96195553572258 0.0 0.0 0.0
Cu 11.874625085562649 5.8182250686378465 28.416779614107945 0.0 0.0 0.0
Cu 11.874625084359032 4.820453165845574 33.46737401465259 0.0 0.0 0.0
Cu 11.8746250825089 3.8291949929974893 38.52739380645636 0.0 0.0 0.0
Cu 10.067088886266816 2.3234716124482646 26.350962709449824 0.0 0.0 0.0
Cu 10.067088885161386 1.3151241370833162 31.447901126441064 0.0 0.0 0.0
Cu 11.874626690923165 6.825036663556807 36.49813417013233 0.0 0.0 0.0
Cu 13.682161684454433 2.3262939641607434 39.412356740395495 0.0 0.0 0.0
Cu 10.067090492493485 4.325282140065632 29.417406854201296 0.0 0.0 0.0
Cu 13.682163491904829 3.3168931378836404 34.48107032761003 0.0 0.0 0.0
Cu 11.874623679472037 0.800643548000771 27.413231406116388 0.0 0.0 0.0
Cu 13.682161484132596 6.325011308951473 32.462771849172 0.0 0.0 0.0
Cu 13.682161483341527 5.310015113015039 37.57247820831617 0.0 0.0 0.0
Cu 11.874625285759539 3.8108046512584086 25.45040120467291 0.0 0.0 0.0
Cu 11.874623477624562 2.8181385285829097 30.436342841532813 0.0 0.0 0.0
Cu 11.874623476854568 1.812360794973691 35.4987415659547 0.0 0.0 0.0
Cu 10.067088685549912 4.8347638736848255 26.83987853207933 0.0 0.0 0.0
Cu 10.067088684758843 3.8197676777483927 31.949584891223495 0.0 0.0 0.0
Cu 13.682163490435919 2.830732999490526 36.9991253342791 0.0 0.0 0.0
Cu 11.874625485453526 1.3050825833305537 24.999999999999996 0.0 0.0 0.0
Cu 13.682159676986611 6.827885848816224 29.93128641278546 0.0 0.0 0.0
Cu 13.682159676397957 5.819496846634235 34.99494988619419 0.0 0.0 0.0
Cu 11.874623477968278 3.3197423231430587 27.914222570263167 0.0 0.0 0.0
Cu 11.874625284746571 2.3162524104079805 32.96445561395443 0.0 0.0 0.0
Cu 11.874625283641144 1.307904935043032 38.06139403094567 0.0 0.0 0.0
Cu 11.87462508638254 6.3155839937023766 25.884962933939136 0.0 0.0 0.0
Cu 11.874625084532408 5.324325820854291 30.944982725742904 0.0 0.0 0.0
Cu 11.874625083328791 4.32655391806202 35.99557712628756 0.0 0.0 0.0
Cu 10.067090693053391 1.8190157525176063 28.913615174440793 0.0 0.0 0.0
Cu 10.067090692283397 0.8132380189083874 33.976013898862675 0.0 0.0 0.0
Cu 11.8746248831319 6.333974335441457 38.96195553572258 0.0 0.0 0.0
Cu 13.68216108454613 12.331627507846417 28.416779614107945 0.0 0.0 0.0
Cu 13.682161083342514 11.333855605054143 33.46737401465259 0.0 0.0 0.0
Cu 13.682161081492382 10.342597432206059 38.52739380645636 0.0 0.0 0.0
Cu 11.874624885250297 8.836874051656833 26.350962709449824 0.0 0.0 0.0
Cu 11.874624884144868 7.828526576291885 31.447901126441064 0.0 0.0 0.0
Cu 13.682162689906646 13.338439102765376 36.49813417013233 0.0 0.0 0.0
Cu 15.489697683437914 8.839696403369313 39.412356740395495 0.0 0.0 0.0
Cu 11.874626491476965 10.8386845792742 29.417406854201296 0.0 0.0 0.0
Cu 15.48969949088831 9.83029557709221 34.48107032761003 0.0 0.0 0.0
Cu 13.68215967845552 7.31404598720934 27.413231406116388 0.0 0.0 0.0
Cu 15.489697483116078 12.838413748160043 32.462771849172 0.0 0.0 0.0
Cu 15.489697482325008 11.823417552223608 37.57247820831617 0.0 0.0 0.0
Cu 13.682161284743021 10.324207090466977 25.45040120467291 0.0 0.0 0.0
Cu 13.682159476608042 9.33154096779148 30.436342841532813 0.0 0.0 0.0
Cu 13.682159475838048 8.32576323418226 35.4987415659547 0.0 0.0 0.0
Cu 11.874624684533394 11.348166312893394 26.83987853207933 0.0 0.0 0.0
Cu 11.874624683742326 10.333170116956962 31.949584891223495 0.0 0.0 0.0
Cu 15.489699489419401 9.344135438699094 36.9991253342791 0.0 0.0 0.0
Cu 13.682161484437007 7.818485022539123 24.999999999999996 0.0 0.0 0.0
Cu 15.489695675970092 13.341288288024792 29.93128641278546 0.0 0.0 0.0
Cu 15.489695675381437 12.332899285842803 34.99494988619419 0.0 0.0 0.0
Cu 13.682159476951758 9.833144762351628 27.914222570263167 0.0 0.0 0.0
Cu 13.682161283730053 8.82965484961655 32.96445561395443 0.0 0.0 0.0
Cu 13.682161282624627 7.821307374251601 38.06139403094567 0.0 0.0 0.0
Cu 13.682161085366022 12.828986432910945 25.884962933939136 0.0 0.0 0.0
Cu 13.68216108351589 11.83772826006286 30.944982725742904 0.0 0.0 0.0
Cu 13.682161082312273 10.839956357270589 35.99557712628756 0.0 0.0 0.0
Cu 11.874626692036873 8.332418191726175 28.913615174440793 0.0 0.0 0.0
Cu 11.87462669126688 7.326640458116957 33.976013898862675 0.0 0.0 0.0
Cu 13.682160882115383 12.847376774650026 38.96195553572258 0.0 0.0 0.0
Cu 15.48969808556265 5.8182250686378465 28.416779614107945 0.0 0.0 0.0
Cu 15.489698084359032 4.820453165845574 33.46737401465259 0.0 0.0 0.0
Cu 15.489698082508898 3.8291949929974893 38.52739380645636 0.0 0.0 0.0
Cu 13.682161886266815 2.3234716124482646 26.350962709449824 0.0 0.0 0.0
Cu 13.682161885161387 1.3151241370833162 31.447901126441064 0.0 0.0 0.0
Cu 15.489699690923164 6.825036663556807 36.49813417013233 0.0 0.0 0.0
Cu 17.297234684454434 2.3262939641607434 39.412356740395495 0.0 0.0 0.0
Cu 13.682163492493483 4.325282140065632 29.417406854201296 0.0 0.0 0.0
Cu 17.29723649190483 3.3168931378836404 34.48107032761003 0.0 0.0 0.0
Cu 15.489696679472038 0.800643548000771 27.413231406116388 0.0 0.0 0.0
Cu 17.297234484132595 6.325011308951473 32.462771849172 0.0 0.0 0.0
Cu 17.297234483341526 5.310015113015039 37.57247820831617 0.0 0.0 0.0
Cu 15.48969828575954 3.8108046512584086 25.45040120467291 0.0 0.0 0.0
Cu 15.489696477624562 2.8181385285829097 30.436342841532813 0.0 0.0 0.0
Cu 15.489696476854569 1.812360794973691 35.4987415659547 0.0 0.0 0.0
Cu 13.682161685549913 4.8347638736848255 26.83987853207933 0.0 0.0 0.0
Cu 13.682161684758844 3.8197676777483927 31.949584891223495 0.0 0.0 0.0
Cu 17.29723649043592 2.830732999490526 36.9991253342791 0.0 0.0 0.0
Cu 15.489698485453527 1.3050825833305537 24.999999999999996 0.0 0.0 0.0
Cu 17.29723267698661 6.827885848816224 29.93128641278546 0.0 0.0 0.0
Cu 17.297232676397957 5.819496846634235 34.99494988619419 0.0 0.0 0.0
Cu 15.489696477968277 3.3197423231430587 27.914222570263167 0.0 0.0 0.0
Cu 15.489698284746572 2.3162524104079805 32.96445561395443 0.0 0.0 0.0
Cu 15.489698283641143 1.307904935043032 38.06139403094567 0.0 0.0 0.0
Cu 15.48969808638254 6.3155839937023766 25.884962933939136 0.0 0.0 0.0
Cu 15.489698084532408 5.324325820854291 30.944982725742904 0.0 0.0 0.0
Cu 15.489698083328792 4.32655391806202 35.99557712628756 0.0 0.0 0.0
Cu 13.682163693053392 1.8190157525176063 28.913615174440793 0.0 0.0 0.0
Cu 13.682163692283398 0.8132380189083874 33.976013898862675 0.0 0.0 0.0
Cu 15.489697883131901 6.333974335441457 38.96195553572258 0.0 0.0 0.0
Cu 17.297234084546133 12.331627507846417 28.416779614107945 0.0 0.0 0.0
Cu 17.297234083342516 11.333855605054143 33.46737401465259 0.0 0.0 0.0
Cu 17.29723408149238 10.342597432206059 38.52739380645636 0.0 0.0 0.0
Cu 15.489697885250298 8.836874051656833 26.350962709449824 0.0 0.0 0.0
Cu 15.489697884144869 7.828526576291885 31.447901126441064 0.0 0.0 0.0
Cu 17.297235689906646 13.338439102765376 36.49813417013233 0.0 0.0 0.0
Cu 19.104770683437916 8.839696403369313 39.412356740395495 0.0 0.0 0.0
Cu 15.489699491476966 10.8386845792742 29.417406854201296 0.0 0.0 0.0
Cu 19.104772490888312 9.83029557709221 34.48107032761003 0.0 0.0 0.0
Cu 17.297232678455522 7.31404598720934 27.413231406116388 0.0 0.0 0.0
Cu 19.104770483116077 12.838413748160043 32.462771849172 0.0 0.0 0.0
Cu 19.10477048232501 11.823417552223608 37.57247820831617 0.0 0.0 0.0
Cu 17.29723428474302 10.324207090466977 25.45040120467291 0.0 0.0 0.0
Cu 17.297232476608045 9.33154096779148 30.436342841532813 0.0 0.0 0.0
Cu 17.29723247583805 8.32576323418226 35.4987415659547 0.0 0.0 0.0
Cu 15.489697684533395 11.348166312893394 26.83987853207933 0.0 0.0 0.0
Cu 15.489697683742326 10.333170116956962 31.949584891223495 0.0 0.0 0.0
Cu 19.104772489419403 9.344135438699094 36.9991253342791 0.0 0.0 0.0
Cu 17.29723448443701 7.818485022539123 24.999999999999996 0.0 0.0 0.0
Cu 19.104768675970092 13.341288288024792 29.93128641278546 0.0 0.0 0.0
Cu 19.10476867538144 12.332899285842803 34.99494988619419 0.0 0.0 0.0
Cu 17.29723247695176 9.833144762351628 27.914222570263167 0.0 0.0 0.0
Cu 17.297234283730056 8.82965484961655 32.96445561395443 0.0 0.0 0.0
Cu 17.297234282624625 7.821307374251601 38.06139403094567 0.0 0.0 0.0
Cu 17.29723408536602 12.828986432910945 25.884962933939136 0.0 0.0 0.0
Cu 17.29723408351589 11.83772826006286 30.944982725742904 0.0 0.0 0.0
Cu 17.297234082312272 10.839956357270589 35.99557712628756 0.0 0.0 0.0
Cu 15.489699692036874 8.332418191726175 28.913615174440793 0.0 0.0 0.0
Cu 15.48969969126688 7.326640458116957 33.976013898862675 0.0 0.0 0.0
Cu 17.297233882115385 12.847376774650026 38.96195553572258 0.0 0.0 0.0
