# total energy = -759.8329577805815 ev

CRYSTAL
PRIMVEC
13.285805790000001 0.0 0.0
-4.428670925107335 16.57030676000881 0.0
-3.87661878841596 -4.144294469224109 60.91526842521297
PRIMCOORD
216 1 
Cu 1.8833559984647854 -0.3487579296727323 27.301581637140067 0.0 0.0 0.0
Cu -1.074142999852288 -1.1494092334558206 25.407115126637237 0.0 0.0 0.0
Cu -2.548838547123662 2.0161183001032272 26.302893650022607 0.0 0.0 0.0
Cu -0.3338166555413427 3.187067953249586 25.839186436050163 0.0 0.0 0.0
Cu -0.353436450734657 0.8556450651789183 26.771494687940837 0.0 0.0 0.0
Cu 1.1388628808174301 0.0073172354341675 25.0 0.0 0.0 0.0
Cu 0.3966391196021084 -1.9415853952587703 30.216932293604536 0.0 0.0 0.0
Cu 0.3955967817720603 2.7865270507400126 28.275568569744415 0.0 0.0 0.0
Cu 0.4006490645192946 0.4223803893648188 29.234874030511392 0.0 0.0 0.0
Cu -1.8102458755887216 1.6028357987438064 28.761587909953114 0.0 0.0 0.0
Cu -1.8207084852115807 -0.7573355747191353 29.719942438105036 0.0 0.0 0.0
Cu -0.3387468690588631 -1.5529923582748368 27.794930116528246 0.0 0.0 0.0
Cu -2.5537568303679206 2.011559036796867 33.12033830868473 0.0 0.0 0.0
Cu -1.0717966904388447 1.2159077766767532 31.19532598710794 0.0 0.0 0.0
Cu -1.0822578238380622 -1.1442691202217758 32.15368051525986 0.0 0.0 0.0
Cu 1.1354491660539225 0.0361862891572122 31.68039439470158 0.0 0.0 0.0
Cu -0.3357236691249303 3.195480737887208 32.63969985546856 0.0 0.0 0.0
Cu 1.1394591109711092 2.4001520737808013 30.69833613160844 0.0 0.0 0.0
Cu 0.3972353497557861 0.4512494430878635 35.91526842521297 0.0 0.0 0.0
Cu -2.5390687249157677 -0.397072863221301 34.143773737272134 0.0 0.0 0.0
Cu 0.3936912444121141 2.7949343119420487 35.076081989162816 0.0 0.0 0.0
Cu -0.3436651523031216 -1.557551621581196 34.61237477519037 0.0 0.0 0.0
Cu -1.8183621757981374 1.6079814354134387 35.508153298575735 0.0 0.0 0.0
Cu -0.3472577678915684 0.8073246081947638 33.613686788072904 0.0 0.0 0.0
Cu 0.4071323567623404 5.17467765699687 27.301581637140067 0.0 0.0 0.0
Cu -2.5503666415547332 4.374026353213782 25.407115126637237 0.0 0.0 0.0
Cu -4.025062188826107 7.53955388677283 26.302893650022607 0.0 0.0 0.0
Cu -1.8100402972437877 8.710503539919188 25.839186436050163 0.0 0.0 0.0
Cu -1.829660092437102 6.379080651848521 26.771494687940837 0.0 0.0 0.0
Cu -0.3373607608850149 5.5307528221037705 25.0 0.0 0.0 0.0
Cu -1.0795845221003366 3.5818501914108323 30.216932293604536 0.0 0.0 0.0
Cu -1.0806268599303848 8.309962637409615 28.275568569744415 0.0 0.0 0.0
Cu -1.0755745771831504 5.945815976034422 29.234874030511392 0.0 0.0 0.0
Cu -3.2864695172911667 7.126271385413409 28.761587909953114 0.0 0.0 0.0
Cu -3.296932126914026 4.766100011950467 29.719942438105036 0.0 0.0 0.0
Cu -1.814970510761308 3.9704432283947657 27.794930116528246 0.0 0.0 0.0
Cu -4.029980472070365 7.53499462346647 33.12033830868473 0.0 0.0 0.0
Cu -2.5480203321412898 6.7393433633463555 31.19532598710794 0.0 0.0 0.0
Cu -2.558481465540507 4.379166466447827 32.15368051525986 0.0 0.0 0.0
Cu -0.3407744756485225 5.559621875826815 31.68039439470158 0.0 0.0 0.0
Cu -1.8119473108273754 8.718916324556812 32.63969985546856 0.0 0.0 0.0
Cu -0.3367645307313358 7.923587660450404 30.69833613160844 0.0 0.0 0.0
Cu -1.078988291946659 5.974685029757467 35.91526842521297 0.0 0.0 0.0
Cu -4.015292366618213 5.126362723448302 34.143773737272134 0.0 0.0 0.0
Cu -1.082532397290331 8.318369898611651 35.076081989162816 0.0 0.0 0.0
Cu -1.8198887940055666 3.965883965088407 34.61237477519037 0.0 0.0 0.0
Cu -3.2945858175005824 7.131417022083042 35.508153298575735 0.0 0.0 0.0
Cu -1.8234814095940135 6.330760194864366 33.613686788072904 0.0 0.0 0.0
Cu -1.0690912849401046 10.698113243666473 27.301581637140067 0.0 0.0 0.0
Cu -4.026590283257178 9.897461939883385 25.407115126637237 0.0 0.0 0.0
Cu -5.501285830528552 13.062989473442432 26.302893650022607 0.0 0.0 0.0
Cu -3.2862639389462327 14.23393912658879 25.839186436050163 0.0 0.0 0.0
Cu -3.305883734139547 11.902516238518125 26.771494687940837 0.0 0.0 0.0
Cu -1.81358440258746 11.054188408773372 25.0 0.0 0.0 0.0
Cu -2.555808163802782 9.105285778080436 30.216932293604536 0.0 0.0 0.0
Cu -2.55685050163283 13.833398224079218 28.275568569744415 0.0 0.0 0.0
Cu -2.5517982188855957 11.469251562704024 29.234874030511392 0.0 0.0 0.0
Cu -4.762693158993612 12.649706972083012 28.761587909953114 0.0 0.0 0.0
Cu -4.773155768616471 10.28953559862007 29.719942438105036 0.0 0.0 0.0
Cu -3.291194152463753 9.493878815064368 27.794930116528246 0.0 0.0 0.0
Cu -5.50620411377281 13.058430210136073 33.12033830868473 0.0 0.0 0.0
Cu -4.024243973843735 12.262778950015958 31.19532598710794 0.0 0.0 0.0
Cu -4.034705107242952 9.90260205311743 32.15368051525986 0.0 0.0 0.0
Cu -1.8169981173509675 11.083057462496418 31.68039439470158 0.0 0.0 0.0
Cu -3.2881709525298204 14.242351911226415 32.63969985546856 0.0 0.0 0.0
Cu -1.8129881724337809 13.447023247120008 30.69833613160844 0.0 0.0 0.0
Cu -2.5552119336491037 11.49812061642707 35.91526842521297 0.0 0.0 0.0
Cu -5.491516008320658 10.649798310117905 34.143773737272134 0.0 0.0 0.0
Cu -2.558756038992776 13.841805485281254 35.076081989162816 0.0 0.0 0.0
Cu -3.296112435708012 9.48931955175801 34.61237477519037 0.0 0.0 0.0
Cu -4.7708094592030275 12.654852608752645 35.508153298575735 0.0 0.0 0.0
Cu -3.2997050512964585 11.854195781533969 33.613686788072904 0.0 0.0 0.0
Cu 6.3119579284647855 -0.3487579296727323 27.301581637140067 0.0 0.0 0.0
Cu 3.354458930147712 -1.1494092334558206 25.407115126637237 0.0 0.0 0.0
Cu 1.8797633828763383 2.0161183001032272 26.302893650022607 0.0 0.0 0.0
Cu 4.0947852744586575 3.187067953249586 25.839186436050163 0.0 0.0 0.0
Cu 4.075165479265343 0.8556450651789183 26.771494687940837 0.0 0.0 0.0
Cu 5.56746481081743 0.0073172354341675 25.0 0.0 0.0 0.0
Cu 4.825241049602108 -1.9415853952587703 30.216932293604536 0.0 0.0 0.0
Cu 4.824198711772061 2.7865270507400126 28.275568569744415 0.0 0.0 0.0
Cu 4.8292509945192945 0.4223803893648188 29.234874030511392 0.0 0.0 0.0
Cu 2.6183560544112785 1.6028357987438064 28.761587909953114 0.0 0.0 0.0
Cu 2.6078934447884192 -0.7573355747191353 29.719942438105036 0.0 0.0 0.0
Cu 4.089855060941137 -1.5529923582748368 27.794930116528246 0.0 0.0 0.0
Cu 1.8748450996320796 2.011559036796867 33.12033830868473 0.0 0.0 0.0
Cu 3.3568052395611554 1.2159077766767532 31.19532598710794 0.0 0.0 0.0
Cu 3.346344106161938 -1.1442691202217758 32.15368051525986 0.0 0.0 0.0
Cu 5.564051096053923 0.0361862891572122 31.68039439470158 0.0 0.0 0.0
Cu 4.09287826087507 3.195480737887208 32.63969985546856 0.0 0.0 0.0
Cu 5.568061040971109 2.4001520737808013 30.69833613160844 0.0 0.0 0.0
Cu 4.8258372797557865 0.4512494430878635 35.91526842521297 0.0 0.0 0.0
Cu 1.8895332050842324 -0.397072863221301 34.143773737272134 0.0 0.0 0.0
Cu 4.822293174412114 2.7949343119420487 35.076081989162816 0.0 0.0 0.0
Cu 4.084936777696878 -1.557551621581196 34.61237477519037 0.0 0.0 0.0
Cu 2.6102397542018627 1.6079814354134387 35.508153298575735 0.0 0.0 0.0
Cu 4.081344162108432 0.8073246081947638 33.613686788072904 0.0 0.0 0.0
Cu 4.8357342867623405 5.17467765699687 27.301581637140067 0.0 0.0 0.0
Cu 1.878235288445267 4.374026353213782 25.407115126637237 0.0 0.0 0.0
Cu 0.4035397411738932 7.53955388677283 26.302893650022607 0.0 0.0 0.0
Cu 2.6185616327562125 8.710503539919188 25.839186436050163 0.0 0.0 0.0
Cu 2.598941837562898 6.379080651848521 26.771494687940837 0.0 0.0 0.0
Cu 4.091241169114985 5.5307528221037705 25.0 0.0 0.0 0.0
Cu 3.3490174078996633 3.5818501914108323 30.216932293604536 0.0 0.0 0.0
Cu 3.3479750700696154 8.309962637409615 28.275568569744415 0.0 0.0 0.0
Cu 3.3530273528168495 5.945815976034422 29.234874030511392 0.0 0.0 0.0
Cu 1.1421324127088335 7.126271385413409 28.761587909953114 0.0 0.0 0.0
Cu 1.1316698030859744 4.766100011950467 29.719942438105036 0.0 0.0 0.0
Cu 2.613631419238692 3.9704432283947657 27.794930116528246 0.0 0.0 0.0
Cu 0.3986214579296345 7.53499462346647 33.12033830868473 0.0 0.0 0.0
Cu 1.8805815978587104 6.7393433633463555 31.19532598710794 0.0 0.0 0.0
Cu 1.8701204644594929 4.379166466447827 32.15368051525986 0.0 0.0 0.0
Cu 4.087827454351478 5.559621875826815 31.68039439470158 0.0 0.0 0.0
Cu 2.6166546191726248 8.718916324556812 32.63969985546856 0.0 0.0 0.0
Cu 4.091837399268664 7.923587660450404 30.69833613160844 0.0 0.0 0.0
Cu 3.3496136380533414 5.974685029757467 35.91526842521297 0.0 0.0 0.0
Cu 0.4133095633817874 5.126362723448302 34.143773737272134 0.0 0.0 0.0
Cu 3.3460695327096692 8.318369898611651 35.076081989162816 0.0 0.0 0.0
Cu 2.6087131359944333 3.965883965088407 34.61237477519037 0.0 0.0 0.0
Cu 1.1340161124994177 7.131417022083042 35.508153298575735 0.0 0.0 0.0
Cu 2.6051205204059866 6.330760194864366 33.613686788072904 0.0 0.0 0.0
Cu 3.3595106450598955 10.698113243666473 27.301581637140067 0.0 0.0 0.0
Cu 0.4020116467428221 9.897461939883385 25.407115126637237 0.0 0.0 0.0
Cu -1.0726839005285518 13.062989473442432 26.302893650022607 0.0 0.0 0.0
Cu 1.1423379910537674 14.23393912658879 25.839186436050163 0.0 0.0 0.0
Cu 1.122718195860453 11.902516238518125 26.771494687940837 0.0 0.0 0.0
Cu 2.6150175274125402 11.054188408773372 25.0 0.0 0.0 0.0
Cu 1.8727937661972185 9.105285778080436 30.216932293604536 0.0 0.0 0.0
Cu 1.8717514283671703 13.833398224079218 28.275568569744415 0.0 0.0 0.0
Cu 1.8768037111144047 11.469251562704024 29.234874030511392 0.0 0.0 0.0
Cu -0.3340912289936115 12.649706972083012 28.761587909953114 0.0 0.0 0.0
Cu -0.3445538386164706 10.28953559862007 29.719942438105036 0.0 0.0 0.0
Cu 1.137407777536247 9.493878815064368 27.794930116528246 0.0 0.0 0.0
Cu -1.0776021837728105 13.058430210136073 33.12033830868473 0.0 0.0 0.0
Cu 0.4043579561562654 12.262778950015958 31.19532598710794 0.0 0.0 0.0
Cu 0.3938968227570478 9.90260205311743 32.15368051525986 0.0 0.0 0.0
Cu 2.6116038126490326 11.083057462496418 31.68039439470158 0.0 0.0 0.0
Cu 1.1404309774701797 14.242351911226415 32.63969985546856 0.0 0.0 0.0
Cu 2.6156137575662193 13.447023247120008 30.69833613160844 0.0 0.0 0.0
Cu 1.8733899963508962 11.49812061642707 35.91526842521297 0.0 0.0 0.0
Cu -1.0629140783206577 10.649798310117905 34.143773737272134 0.0 0.0 0.0
Cu 1.8698458910072242 13.841805485281254 35.076081989162816 0.0 0.0 0.0
Cu 1.1324894942919885 9.48931955175801 34.61237477519037 0.0 0.0 0.0
Cu -0.3422075292030273 12.654852608752645 35.508153298575735 0.0 0.0 0.0
Cu 1.1288968787035416 11.854195781533969 33.613686788072904 0.0 0.0 0.0
Cu 10.740559858464785 -0.3487579296727323 27.301581637140067 0.0 0.0 0.0
Cu 7.783060860147712 -1.1494092334558206 25.407115126637237 0.0 0.0 0.0
Cu 6.308365312876338 2.0161183001032272 26.302893650022607 0.0 0.0 0.0
Cu 8.523387204458658 3.187067953249586 25.839186436050163 0.0 0.0 0.0
Cu 8.503767409265343 0.8556450651789183 26.771494687940837 0.0 0.0 0.0
Cu 9.99606674081743 0.0073172354341675 25.0 0.0 0.0 0.0
Cu 9.253842979602108 -1.9415853952587703 30.216932293604536 0.0 0.0 0.0
Cu 9.25280064177206 2.7865270507400126 28.275568569744415 0.0 0.0 0.0
Cu 9.257852924519295 0.4223803893648188 29.234874030511392 0.0 0.0 0.0
Cu 7.046957984411279 1.6028357987438064 28.761587909953114 0.0 0.0 0.0
Cu 7.036495374788419 -0.7573355747191353 29.719942438105036 0.0 0.0 0.0
Cu 8.518456990941138 -1.5529923582748368 27.794930116528246 0.0 0.0 0.0
Cu 6.30344702963208 2.011559036796867 33.12033830868473 0.0 0.0 0.0
Cu 7.7854071695611555 1.2159077766767532 31.19532598710794 0.0 0.0 0.0
Cu 7.774946036161938 -1.1442691202217758 32.15368051525986 0.0 0.0 0.0
Cu 9.992653026053922 0.0361862891572122 31.68039439470158 0.0 0.0 0.0
Cu 8.52148019087507 3.195480737887208 32.63969985546856 0.0 0.0 0.0
Cu 9.996662970971109 2.4001520737808013 30.69833613160844 0.0 0.0 0.0
Cu 9.254439209755786 0.4512494430878635 35.91526842521297 0.0 0.0 0.0
Cu 6.3181351350842325 -0.397072863221301 34.143773737272134 0.0 0.0 0.0
Cu 9.250895104412114 2.7949343119420487 35.076081989162816 0.0 0.0 0.0
Cu 8.51353870769688 -1.557551621581196 34.61237477519037 0.0 0.0 0.0
Cu 7.038841684201863 1.6079814354134387 35.508153298575735 0.0 0.0 0.0
Cu 8.509946092108432 0.8073246081947638 33.613686788072904 0.0 0.0 0.0
Cu 9.264336216762342 5.17467765699687 27.301581637140067 0.0 0.0 0.0
Cu 6.306837218445267 4.374026353213782 25.407115126637237 0.0 0.0 0.0
Cu 4.832141671173893 7.53955388677283 26.302893650022607 0.0 0.0 0.0
Cu 7.047163562756213 8.710503539919188 25.839186436050163 0.0 0.0 0.0
Cu 7.027543767562898 6.379080651848521 26.771494687940837 0.0 0.0 0.0
Cu 8.519843099114986 5.5307528221037705 25.0 0.0 0.0 0.0
Cu 7.777619337899663 3.5818501914108323 30.216932293604536 0.0 0.0 0.0
Cu 7.776577000069615 8.309962637409615 28.275568569744415 0.0 0.0 0.0
Cu 7.78162928281685 5.945815976034422 29.234874030511392 0.0 0.0 0.0
Cu 5.570734342708834 7.126271385413409 28.761587909953114 0.0 0.0 0.0
Cu 5.560271733085974 4.766100011950467 29.719942438105036 0.0 0.0 0.0
Cu 7.042233349238693 3.9704432283947657 27.794930116528246 0.0 0.0 0.0
Cu 4.827223387929635 7.53499462346647 33.12033830868473 0.0 0.0 0.0
Cu 6.3091835278587105 6.7393433633463555 31.19532598710794 0.0 0.0 0.0
Cu 6.298722394459493 4.379166466447827 32.15368051525986 0.0 0.0 0.0
Cu 8.516429384351477 5.559621875826815 31.68039439470158 0.0 0.0 0.0
Cu 7.045256549172625 8.718916324556812 32.63969985546856 0.0 0.0 0.0
Cu 8.520439329268665 7.923587660450404 30.69833613160844 0.0 0.0 0.0
Cu 7.778215568053342 5.974685029757467 35.91526842521297 0.0 0.0 0.0
Cu 4.8419114933817875 5.126362723448302 34.143773737272134 0.0 0.0 0.0
Cu 7.774671462709669 8.318369898611651 35.076081989162816 0.0 0.0 0.0
Cu 7.0373150659944335 3.965883965088407 34.61237477519037 0.0 0.0 0.0
Cu 5.562618042499418 7.131417022083042 35.508153298575735 0.0 0.0 0.0
Cu 7.033722450405987 6.330760194864366 33.613686788072904 0.0 0.0 0.0
Cu 7.788112575059896 10.698113243666473 27.301581637140067 0.0 0.0 0.0
Cu 4.830613576742822 9.897461939883385 25.407115126637237 0.0 0.0 0.0
Cu 3.3559180294714483 13.062989473442432 26.302893650022607 0.0 0.0 0.0
Cu 5.570939921053768 14.23393912658879 25.839186436050163 0.0 0.0 0.0
Cu 5.551320125860453 11.902516238518125 26.771494687940837 0.0 0.0 0.0
Cu 7.04361945741254 11.054188408773372 25.0 0.0 0.0 0.0
Cu 6.301395696197218 9.105285778080436 30.216932293604536 0.0 0.0 0.0
Cu 6.30035335836717 13.833398224079218 28.275568569744415 0.0 0.0 0.0
Cu 6.305405641114405 11.469251562704024 29.234874030511392 0.0 0.0 0.0
Cu 4.094510701006389 12.649706972083012 28.761587909953114 0.0 0.0 0.0
Cu 4.084048091383529 10.28953559862007 29.719942438105036 0.0 0.0 0.0
Cu 5.566009707536248 9.493878815064368 27.794930116528246 0.0 0.0 0.0
Cu 3.3509997462271897 13.058430210136073 33.12033830868473 0.0 0.0 0.0
Cu 4.8329598861562655 12.262778950015958 31.19532598710794 0.0 0.0 0.0
Cu 4.822498752757048 9.90260205311743 32.15368051525986 0.0 0.0 0.0
Cu 7.040205742649032 11.083057462496418 31.68039439470158 0.0 0.0 0.0
Cu 5.56903290747018 14.242351911226415 32.63969985546856 0.0 0.0 0.0
Cu 7.044215687566219 13.447023247120008 30.69833613160844 0.0 0.0 0.0
Cu 6.3019919263508966 11.49812061642707 35.91526842521297 0.0 0.0 0.0
Cu 3.3656878516793425 10.649798310117905 34.143773737272134 0.0 0.0 0.0
Cu 6.298447821007224 13.841805485281254 35.076081989162816 0.0 0.0 0.0
Cu 5.561091424291988 9.48931955175801 34.61237477519037 0.0 0.0 0.0
Cu 4.086394400796973 12.654852608752645 35.508153298575735 0.0 0.0 0.0
Cu 5.557498808703542 11.854195781533969 33.613686788072904 0.0 0.0 0.0
