# total energy = -843.6703443130363 ev

CRYSTAL
PRIMVEC
12.77978835 0.0 0.0
0.0 21.07607716 0.0
0.0 -3.5316198533985905 59.93955376524159
PRIMCOORD
240 1 
Cu 0.0 6.0451439224777594 27.115593395792757 0.0 0.0 0.0
Cu 0.0 1.714014212473331 26.229836622373462 0.0 0.0 0.0
Cu 0.0 7.962049884578764 25.35754759424991 0.0 0.0 0.0
Cu 1.277978835 3.873058242278195 26.595591123912964 0.0 0.0 0.0
Cu 1.277978835 -0.4290600269800708 25.795144099601384 0.0 0.0 0.0
Cu 1.277978835 5.83281916726806 25.0 0.0 0.0 0.0
Cu 0.0 8.566225901508924 29.750768196424815 0.0 0.0 0.0
Cu 0.0 4.219728640795923 28.863096477971283 0.0 0.0 0.0
Cu 0.0 -0.1178045473962075 27.992301527841477 0.0 0.0 0.0
Cu 1.277978835 6.390257494224093 29.314013425154325 0.0 0.0 0.0
Cu 1.277978835 2.060138868740209 28.41699845840187 0.0 0.0 0.0
Cu 1.277978835 8.24499584881305 27.555673016683134 0.0 0.0 0.0
Cu 0.0 0.5177897096138846 32.38383866185442 0.0 0.0 0.0
Cu 0.0 6.703140730933725 31.523965211425374 0.0 0.0 0.0
Cu 0.0 2.3742513514320858 30.623793741869232 0.0 0.0 0.0
Cu 1.277978835 -1.6577224581560595 31.94613693974282 0.0 0.0 0.0
Cu 1.277978835 4.54353237593337 31.074963209276568 0.0 0.0 0.0
Cu 1.277978835 0.1961127256217108 30.187565054399354 0.0 0.0 0.0
Cu 0.0 2.9293000149928297 34.9395537652416 0.0 0.0 0.0
Cu 0.0 -1.3458272670986424 34.14531452977727 0.0 0.0 0.0
Cu 0.0 4.88908697218161 33.34459394188937 0.0 0.0 0.0
Cu 1.277978835 0.8015359423344333 34.58251121144028 0.0 0.0 0.0
Cu 1.277978835 7.04691974999559 33.709801316276234 0.0 0.0 0.0
Cu 1.277978835 2.717508983496708 32.82330802553608 0.0 0.0 0.0
Cu 0.0 16.58318250247776 27.115593395792757 0.0 0.0 0.0
Cu 0.0 12.252052792473332 26.229836622373462 0.0 0.0 0.0
Cu 0.0 18.500088464578766 25.35754759424991 0.0 0.0 0.0
Cu 1.277978835 14.411096822278196 26.595591123912964 0.0 0.0 0.0
Cu 1.277978835 10.108978553019929 25.795144099601384 0.0 0.0 0.0
Cu 1.277978835 16.37085774726806 25.0 0.0 0.0 0.0
Cu 0.0 19.104264481508924 29.750768196424815 0.0 0.0 0.0
Cu 0.0 14.757767220795923 28.863096477971283 0.0 0.0 0.0
Cu 0.0 10.420234032603792 27.992301527841477 0.0 0.0 0.0
Cu 1.277978835 16.928296074224093 29.314013425154325 0.0 0.0 0.0
Cu 1.277978835 12.59817744874021 28.41699845840187 0.0 0.0 0.0
Cu 1.277978835 18.78303442881305 27.555673016683134 0.0 0.0 0.0
Cu 0.0 11.055828289613885 32.38383866185442 0.0 0.0 0.0
Cu 0.0 17.241179310933724 31.523965211425374 0.0 0.0 0.0
Cu 0.0 12.912289931432086 30.623793741869232 0.0 0.0 0.0
Cu 1.277978835 8.88031612184394 31.94613693974282 0.0 0.0 0.0
Cu 1.277978835 15.081570955933369 31.074963209276568 0.0 0.0 0.0
Cu 1.277978835 10.734151305621712 30.187565054399354 0.0 0.0 0.0
Cu 0.0 13.46733859499283 34.9395537652416 0.0 0.0 0.0
Cu 0.0 9.192211312901359 34.14531452977727 0.0 0.0 0.0
Cu 0.0 15.42712555218161 33.34459394188937 0.0 0.0 0.0
Cu 1.277978835 11.339574522334434 34.58251121144028 0.0 0.0 0.0
Cu 1.277978835 17.58495832999559 33.709801316276234 0.0 0.0 0.0
Cu 1.277978835 13.255547563496709 32.82330802553608 0.0 0.0 0.0
Cu 2.55595767 6.0451439224777594 27.115593395792757 0.0 0.0 0.0
Cu 2.55595767 1.714014212473331 26.229836622373462 0.0 0.0 0.0
Cu 2.55595767 7.962049884578764 25.35754759424991 0.0 0.0 0.0
Cu 3.8339365050000005 3.873058242278195 26.595591123912964 0.0 0.0 0.0
Cu 3.8339365050000005 -0.4290600269800708 25.795144099601384 0.0 0.0 0.0
Cu 3.8339365050000005 5.83281916726806 25.0 0.0 0.0 0.0
Cu 2.55595767 8.566225901508924 29.750768196424815 0.0 0.0 0.0
Cu 2.55595767 4.219728640795923 28.863096477971283 0.0 0.0 0.0
Cu 2.55595767 -0.1178045473962075 27.992301527841477 0.0 0.0 0.0
Cu 3.8339365050000005 6.390257494224093 29.314013425154325 0.0 0.0 0.0
Cu 3.8339365050000005 2.060138868740209 28.41699845840187 0.0 0.0 0.0
Cu 3.8339365050000005 8.24499584881305 27.555673016683134 0.0 0.0 0.0
Cu 2.55595767 0.5177897096138846 32.38383866185442 0.0 0.0 0.0
Cu 2.55595767 6.703140730933725 31.523965211425374 0.0 0.0 0.0
Cu 2.55595767 2.3742513514320858 30.623793741869232 0.0 0.0 0.0
Cu 3.8339365050000005 -1.6577224581560595 31.94613693974282 0.0 0.0 0.0
Cu 3.8339365050000005 4.54353237593337 31.074963209276568 0.0 0.0 0.0
Cu 3.8339365050000005 0.1961127256217108 30.187565054399354 0.0 0.0 0.0
Cu 2.55595767 2.9293000149928297 34.9395537652416 0.0 0.0 0.0
Cu 2.55595767 -1.3458272670986424 34.14531452977727 0.0 0.0 0.0
Cu 2.55595767 4.88908697218161 33.34459394188937 0.0 0.0 0.0
Cu 3.8339365050000005 0.8015359423344333 34.58251121144028 0.0 0.0 0.0
Cu 3.8339365050000005 7.04691974999559 33.709801316276234 0.0 0.0 0.0
Cu 3.8339365050000005 2.717508983496708 32.82330802553608 0.0 0.0 0.0
Cu 2.55595767 16.58318250247776 27.115593395792757 0.0 0.0 0.0
Cu 2.55595767 12.252052792473332 26.229836622373462 0.0 0.0 0.0
Cu 2.55595767 18.500088464578766 25.35754759424991 0.0 0.0 0.0
Cu 3.8339365050000005 14.411096822278196 26.595591123912964 0.0 0.0 0.0
Cu 3.8339365050000005 10.108978553019929 25.795144099601384 0.0 0.0 0.0
Cu 3.8339365050000005 16.37085774726806 25.0 0.0 0.0 0.0
Cu 2.55595767 19.104264481508924 29.750768196424815 0.0 0.0 0.0
Cu 2.55595767 14.757767220795923 28.863096477971283 0.0 0.0 0.0
Cu 2.55595767 10.420234032603792 27.992301527841477 0.0 0.0 0.0
Cu 3.8339365050000005 16.928296074224093 29.314013425154325 0.0 0.0 0.0
Cu 3.8339365050000005 12.59817744874021 28.41699845840187 0.0 0.0 0.0
Cu 3.8339365050000005 18.78303442881305 27.555673016683134 0.0 0.0 0.0
Cu 2.55595767 11.055828289613885 32.38383866185442 0.0 0.0 0.0
Cu 2.55595767 17.241179310933724 31.523965211425374 0.0 0.0 0.0
Cu 2.55595767 12.912289931432086 30.623793741869232 0.0 0.0 0.0
Cu 3.8339365050000005 8.88031612184394 31.94613693974282 0.0 0.0 0.0
Cu 3.8339365050000005 15.081570955933369 31.074963209276568 0.0 0.0 0.0
Cu 3.8339365050000005 10.734151305621712 30.187565054399354 0.0 0.0 0.0
Cu 2.55595767 13.46733859499283 34.9395537652416 0.0 0.0 0.0
Cu 2.55595767 9.192211312901359 34.14531452977727 0.0 0.0 0.0
Cu 2.55595767 15.42712555218161 33.34459394188937 0.0 0.0 0.0
Cu 3.8339365050000005 11.339574522334434 34.58251121144028 0.0 0.0 0.0
Cu 3.8339365050000005 17.58495832999559 33.709801316276234 0.0 0.0 0.0
Cu 3.8339365050000005 13.255547563496709 32.82330802553608 0.0 0.0 0.0
Cu 5.11191534 6.0451439224777594 27.115593395792757 0.0 0.0 0.0
Cu 5.11191534 1.714014212473331 26.229836622373462 0.0 0.0 0.0
Cu 5.11191534 7.962049884578764 25.35754759424991 0.0 0.0 0.0
Cu 6.389894175 3.873058242278195 26.595591123912964 0.0 0.0 0.0
Cu 6.389894175 -0.4290600269800708 25.795144099601384 0.0 0.0 0.0
Cu 6.389894175 5.83281916726806 25.0 0.0 0.0 0.0
Cu 5.11191534 8.566225901508924 29.750768196424815 0.0 0.0 0.0
Cu 5.11191534 4.219728640795923 28.863096477971283 0.0 0.0 0.0
Cu 5.11191534 -0.1178045473962075 27.992301527841477 0.0 0.0 0.0
Cu 6.389894175 6.390257494224093 29.314013425154325 0.0 0.0 0.0
Cu 6.389894175 2.060138868740209 28.41699845840187 0.0 0.0 0.0
Cu 6.389894175 8.24499584881305 27.555673016683134 0.0 0.0 0.0
Cu 5.11191534 0.5177897096138846 32.38383866185442 0.0 0.0 0.0
Cu 5.11191534 6.703140730933725 31.523965211425374 0.0 0.0 0.0
Cu 5.11191534 2.3742513514320858 30.623793741869232 0.0 0.0 0.0
Cu 6.389894175 -1.6577224581560595 31.94613693974282 0.0 0.0 0.0
Cu 6.389894175 4.54353237593337 31.074963209276568 0.0 0.0 0.0
Cu 6.389894175 0.1961127256217108 30.187565054399354 0.0 0.0 0.0
Cu 5.11191534 2.9293000149928297 34.9395537652416 0.0 0.0 0.0
Cu 5.11191534 -1.3458272670986424 34.14531452977727 0.0 0.0 0.0
Cu 5.11191534 4.88908697218161 33.34459394188937 0.0 0.0 0.0
Cu 6.389894175 0.8015359423344333 34.58251121144028 0.0 0.0 0.0
Cu 6.389894175 7.04691974999559 33.709801316276234 0.0 0.0 0.0
Cu 6.389894175 2.717508983496708 32.82330802553608 0.0 0.0 0.0
Cu 5.11191534 16.58318250247776 27.115593395792757 0.0 0.0 0.0
Cu 5.11191534 12.252052792473332 26.229836622373462 0.0 0.0 0.0
Cu 5.11191534 18.500088464578766 25.35754759424991 0.0 0.0 0.0
Cu 6.389894175 14.411096822278196 26.595591123912964 0.0 0.0 0.0
Cu 6.389894175 10.108978553019929 25.795144099601384 0.0 0.0 0.0
Cu 6.389894175 16.37085774726806 25.0 0.0 0.0 0.0
Cu 5.11191534 19.104264481508924 29.750768196424815 0.0 0.0 0.0
Cu 5.11191534 14.757767220795923 28.863096477971283 0.0 0.0 0.0
Cu 5.11191534 10.420234032603792 27.992301527841477 0.0 0.0 0.0
Cu 6.389894175 16.928296074224093 29.314013425154325 0.0 0.0 0.0
Cu 6.389894175 12.59817744874021 28.41699845840187 0.0 0.0 0.0
Cu 6.389894175 18.78303442881305 27.555673016683134 0.0 0.0 0.0
Cu 5.11191534 11.055828289613885 32.38383866185442 0.0 0.0 0.0
Cu 5.11191534 17.241179310933724 31.523965211425374 0.0 0.0 0.0
Cu 5.11191534 12.912289931432086 30.623793741869232 0.0 0.0 0.0
Cu 6.389894175 8.88031612184394 31.94613693974282 0.0 0.0 0.0
Cu 6.389894175 15.081570955933369 31.074963209276568 0.0 0.0 0.0
Cu 6.389894175 10.734151305621712 30.187565054399354 0.0 0.0 0.0
Cu 5.11191534 13.46733859499283 34.9395537652416 0.0 0.0 0.0
Cu 5.11191534 9.192211312901359 34.14531452977727 0.0 0.0 0.0
Cu 5.11191534 15.42712555218161 33.34459394188937 0.0 0.0 0.0
Cu 6.389894175 11.339574522334434 34.58251121144028 0.0 0.0 0.0
Cu 6.389894175 17.58495832999559 33.709801316276234 0.0 0.0 0.0
Cu 6.389894175 13.255547563496709 32.82330802553608 0.0 0.0 0.0
Cu 7.667873010000001 6.0451439224777594 27.115593395792757 0.0 0.0 0.0
Cu 7.667873010000001 1.714014212473331 26.229836622373462 0.0 0.0 0.0
Cu 7.667873010000001 7.962049884578764 25.35754759424991 0.0 0.0 0.0
Cu 8.945851845000002 3.873058242278195 26.595591123912964 0.0 0.0 0.0
Cu 8.945851845000002 -0.4290600269800708 25.795144099601384 0.0 0.0 0.0
Cu 8.945851845000002 5.83281916726806 25.0 0.0 0.0 0.0
Cu 7.667873010000001 8.566225901508924 29.750768196424815 0.0 0.0 0.0
Cu 7.667873010000001 4.219728640795923 28.863096477971283 0.0 0.0 0.0
Cu 7.667873010000001 -0.1178045473962075 27.992301527841477 0.0 0.0 0.0
Cu 8.945851845000002 6.390257494224093 29.314013425154325 0.0 0.0 0.0
Cu 8.945851845000002 2.060138868740209 28.41699845840187 0.0 0.0 0.0
Cu 8.945851845000002 8.24499584881305 27.555673016683134 0.0 0.0 0.0
Cu 7.667873010000001 0.5177897096138846 32.38383866185442 0.0 0.0 0.0
Cu 7.667873010000001 6.703140730933725 31.523965211425374 0.0 0.0 0.0
Cu 7.667873010000001 2.3742513514320858 30.623793741869232 0.0 0.0 0.0
Cu 8.945851845000002 -1.6577224581560595 31.94613693974282 0.0 0.0 0.0
Cu 8.945851845000002 4.54353237593337 31.074963209276568 0.0 0.0 0.0
Cu 8.945851845000002 0.1961127256217108 30.187565054399354 0.0 0.0 0.0
Cu 7.667873010000001 2.9293000149928297 34.9395537652416 0.0 0.0 0.0
Cu 7.667873010000001 -1.3458272670986424 34.14531452977727 0.0 0.0 0.0
Cu 7.667873010000001 4.88908697218161 33.34459394188937 0.0 0.0 0.0
Cu 8.945851845000002 0.8015359423344333 34.58251121144028 0.0 0.0 0.0
Cu 8.945851845000002 7.04691974999559 33.709801316276234 0.0 0.0 0.0
Cu 8.945851845000002 2.717508983496708 32.82330802553608 0.0 0.0 0.0
Cu 7.667873010000001 16.58318250247776 27.115593395792757 0.0 0.0 0.0
Cu 7.667873010000001 12.252052792473332 26.229836622373462 0.0 0.0 0.0
Cu 7.667873010000001 18.500088464578766 25.35754759424991 0.0 0.0 0.0
Cu 8.945851845000002 14.411096822278196 26.595591123912964 0.0 0.0 0.0
Cu 8.945851845000002 10.108978553019929 25.795144099601384 0.0 0.0 0.0
Cu 8.945851845000002 16.37085774726806 25.0 0.0 0.0 0.0
Cu 7.667873010000001 19.104264481508924 29.750768196424815 0.0 0.0 0.0
Cu 7.667873010000001 14.757767220795923 28.863096477971283 0.0 0.0 0.0
Cu 7.667873010000001 10.420234032603792 27.992301527841477 0.0 0.0 0.0
Cu 8.945851845000002 16.928296074224093 29.314013425154325 0.0 0.0 0.0
Cu 8.945851845000002 12.59817744874021 28.41699845840187 0.0 0.0 0.0
Cu 8.945851845000002 18.78303442881305 27.555673016683134 0.0 0.0 0.0
Cu 7.667873010000001 11.055828289613885 32.38383866185442 0.0 0.0 0.0
Cu 7.667873010000001 17.241179310933724 31.523965211425374 0.0 0.0 0.0
Cu 7.667873010000001 12.912289931432086 30.623793741869232 0.0 0.0 0.0
Cu 8.945851845000002 8.88031612184394 31.94613693974282 0.0 0.0 0.0
Cu 8.945851845000002 15.081570955933369 31.074963209276568 0.0 0.0 0.0
Cu 8.945851845000002 10.734151305621712 30.187565054399354 0.0 0.0 0.0
Cu 7.667873010000001 13.46733859499283 34.9395537652416 0.0 0.0 0.0
Cu 7.667873010000001 9.192211312901359 34.14531452977727 0.0 0.0 0.0
Cu 7.667873010000001 15.42712555218161 33.34459394188937 0.0 0.0 0.0
Cu 8.945851845000002 11.339574522334434 34.58251121144028 0.0 0.0 0.0
Cu 8.945851845000002 17.58495832999559 33.709801316276234 0.0 0.0 0.0
Cu 8.945851845000002 13.255547563496709 32.82330802553608 0.0 0.0 0.0
Cu 10.22383068 6.0451439224777594 27.115593395792757 0.0 0.0 0.0
Cu 10.22383068 1.714014212473331 26.229836622373462 0.0 0.0 0.0
Cu 10.22383068 7.962049884578764 25.35754759424991 0.0 0.0 0.0
Cu 11.501809515000001 3.873058242278195 26.595591123912964 0.0 0.0 0.0
Cu 11.501809515000001 -0.4290600269800708 25.795144099601384 0.0 0.0 0.0
Cu 11.501809515000001 5.83281916726806 25.0 0.0 0.0 0.0
Cu 10.22383068 8.566225901508924 29.750768196424815 0.0 0.0 0.0
Cu 10.22383068 4.219728640795923 28.863096477971283 0.0 0.0 0.0
Cu 10.22383068 -0.1178045473962075 27.992301527841477 0.0 0.0 0.0
Cu 11.501809515000001 6.390257494224093 29.314013425154325 0.0 0.0 0.0
Cu 11.501809515000001 2.060138868740209 28.41699845840187 0.0 0.0 0.0
Cu 11.501809515000001 8.24499584881305 27.555673016683134 0.0 0.0 0.0
Cu 10.22383068 0.5177897096138846 32.38383866185442 0.0 0.0 0.0
Cu 10.22383068 6.703140730933725 31.523965211425374 0.0 0.0 0.0
Cu 10.22383068 2.3742513514320858 30.623793741869232 0.0 0.0 0.0
Cu 11.501809515000001 -1.6577224581560595 31.94613693974282 0.0 0.0 0.0
Cu 11.501809515000001 4.54353237593337 31.074963209276568 0.0 0.0 0.0
Cu 11.501809515000001 0.1961127256217108 30.187565054399354 0.0 0.0 0.0
Cu 10.22383068 2.9293000149928297 34.9395537652416 0.0 0.0 0.0
Cu 10.22383068 -1.3458272670986424 34.14531452977727 0.0 0.0 0.0
Cu 10.22383068 4.88908697218161 33.34459394188937 0.0 0.0 0.0
Cu 11.501809515000001 0.8015359423344333 34.58251121144028 0.0 0.0 0.0
Cu 11.501809515000001 7.04691974999559 33.709801316276234 0.0 0.0 0.0
Cu 11.501809515000001 2.717508983496708 32.82330802553608 0.0 0.0 0.0
Cu 10.22383068 16.58318250247776 27.115593395792757 0.0 0.0 0.0
Cu 10.22383068 12.252052792473332 26.229836622373462 0.0 0.0 0.0
Cu 10.22383068 18.500088464578766 25.35754759424991 0.0 0.0 0.0
Cu 11.501809515000001 14.411096822278196 26.595591123912964 0.0 0.0 0.0
Cu 11.501809515000001 10.108978553019929 25.795144099601384 0.0 0.0 0.0
Cu 11.501809515000001 16.37085774726806 25.0 0.0 0.0 0.0
Cu 10.22383068 19.104264481508924 29.750768196424815 0.0 0.0 0.0
Cu 10.22383068 14.757767220795923 28.863096477971283 0.0 0.0 0.0
Cu 10.22383068 10.420234032603792 27.992301527841477 0.0 0.0 0.0
Cu 11.501809515000001 16.928296074224093 29.314013425154325 0.0 0.0 0.0
Cu 11.501809515000001 12.59817744874021 28.41699845840187 0.0 0.0 0.0
Cu 11.501809515000001 18.78303442881305 27.555673016683134 0.0 0.0 0.0
Cu 10.22383068 11.055828289613885 32.38383866185442 0.0 0.0 0.0
Cu 10.22383068 17.241179310933724 31.523965211425374 0.0 0.0 0.0
Cu 10.22383068 12.912289931432086 30.623793741869232 0.0 0.0 0.0
Cu 11.501809515000001 8.88031612184394 31.94613693974282 0.0 0.0 0.0
Cu 11.501809515000001 15.081570955933369 31.074963209276568 0.0 0.0 0.0
Cu 11.501809515000001 10.734151305621712 30.187565054399354 0.0 0.0 0.0
Cu 10.22383068 13.46733859499283 34.9395537652416 0.0 0.0 0.0
Cu 10.22383068 9.192211312901359 34.14531452977727 0.0 0.0 0.0
Cu 10.22383068 15.42712555218161 33.34459394188937 0.0 0.0 0.0
Cu 11.501809515000001 11.339574522334434 34.58251121144028 0.0 0.0 0.0
Cu 11.501809515000001 17.58495832999559 33.709801316276234 0.0 0.0 0.0
Cu 11.501809515000001 13.255547563496709 32.82330802553608 0.0 0.0 0.0
