# total energy = -899.4260573919349 ev

CRYSTAL
PRIMVEC
17.89900952 0.0 0.0
2.557001360515044 11.144811173685802 0.0
2.7397781673406674 3.1449220661698853 64.00058704235117
PRIMCOORD
252 1 
Cu 2.0091430940656183 4.562159983798685 25.0 0.0 0.0 0.0
Cu 3.287638677011503 6.6061472922046205 25.71399445894837 0.0 0.0 0.0
Cu 3.287640034553081 3.6723421363836084 29.06815866566744 0.0 0.0 0.0
Cu 3.287641253010706 3.0480740471110632 26.525768558110776 0.0 0.0 0.0
Cu 4.566144511047341 5.134700951335407 27.412803712050028 0.0 0.0 0.0
Cu 2.0091367777499207 1.6259875270462185 28.233298536607215 0.0 0.0 0.0
Cu 4.566144569935658 5.72916859515063 29.9063338649976 0.0 0.0 0.0
Cu 2.009136837081767 2.2071700990402325 30.745643953248994 0.0 0.0 0.0
Cu 3.2876401532511172 4.845632769306254 34.09428304285151 0.0 0.0 0.0
Cu 3.287641372362763 4.262637313702023 31.57951852087762 0.0 0.0 0.0
Cu 4.566142072322627 6.312162583195455 32.42106852147356 0.0 0.0 0.0
Cu 2.009136896342021 2.7952130662031704 33.254943089102184 0.0 0.0 0.0
Cu 4.56614341013231 6.902457760513869 34.93242837668374 0.0 0.0 0.0
Cu 2.009136955673867 3.3763956381971845 35.76728850574396 0.0 0.0 0.0
Cu 3.287638990619772 6.012639913098794 39.000587042351185 0.0 0.0 0.0
Cu 3.2876389336380494 5.44009894556207 36.58778333030115 0.0 0.0 0.0
Cu 3.2876415114171627 1.9543202629435137 37.4748184842404 0.0 0.0 0.0
Cu 4.566137096669807 3.9686414598816833 38.28659258340281 0.0 0.0 0.0
Cu 3.2876437743231404 10.134565570641586 25.0 0.0 0.0 0.0
Cu 4.566139357269025 12.178552879047523 25.71399445894837 0.0 0.0 0.0
Cu 4.566140714810603 9.24474772322651 29.06815866566744 0.0 0.0 0.0
Cu 4.566141933268228 8.620479633953964 26.525768558110776 0.0 0.0 0.0
Cu 5.844645191304863 10.707106538178309 27.412803712050028 0.0 0.0 0.0
Cu 3.287637458007443 7.19839311388912 28.233298536607215 0.0 0.0 0.0
Cu 5.84464525019318 11.30157418199353 29.9063338649976 0.0 0.0 0.0
Cu 3.287637517339289 7.779575685883134 30.745643953248994 0.0 0.0 0.0
Cu 4.566140833508639 10.418038356149156 34.09428304285151 0.0 0.0 0.0
Cu 4.566142052620285 9.835042900544924 31.57951852087762 0.0 0.0 0.0
Cu 5.84464275258015 11.884568170038357 32.42106852147356 0.0 0.0 0.0
Cu 3.287637576599543 8.367618653046073 33.254943089102184 0.0 0.0 0.0
Cu 5.844644090389831 12.47486334735677 34.93242837668374 0.0 0.0 0.0
Cu 3.287637635931389 8.948801225040086 35.76728850574396 0.0 0.0 0.0
Cu 4.566139670877294 11.585045499941696 39.000587042351185 0.0 0.0 0.0
Cu 4.566139613895571 11.012504532404972 36.58778333030115 0.0 0.0 0.0
Cu 4.566142191674684 7.5267258497864145 37.4748184842404 0.0 0.0 0.0
Cu 5.844637776927328 9.541047046724584 38.28659258340281 0.0 0.0 0.0
Cu 4.566144454065618 4.562159983798685 25.0 0.0 0.0 0.0
Cu 5.844640037011503 6.6061472922046205 25.71399445894837 0.0 0.0 0.0
Cu 5.844641394553081 3.6723421363836084 29.06815866566744 0.0 0.0 0.0
Cu 5.844642613010706 3.0480740471110632 26.525768558110776 0.0 0.0 0.0
Cu 7.123145871047341 5.134700951335407 27.412803712050028 0.0 0.0 0.0
Cu 4.56613813774992 1.6259875270462185 28.233298536607215 0.0 0.0 0.0
Cu 7.123145929935658 5.72916859515063 29.9063338649976 0.0 0.0 0.0
Cu 4.5661381970817665 2.2071700990402325 30.745643953248994 0.0 0.0 0.0
Cu 5.844641513251117 4.845632769306254 34.09428304285151 0.0 0.0 0.0
Cu 5.844642732362763 4.262637313702023 31.57951852087762 0.0 0.0 0.0
Cu 7.123143432322627 6.312162583195455 32.42106852147356 0.0 0.0 0.0
Cu 4.566138256342021 2.7952130662031704 33.254943089102184 0.0 0.0 0.0
Cu 7.12314477013231 6.902457760513869 34.93242837668374 0.0 0.0 0.0
Cu 4.566138315673867 3.3763956381971845 35.76728850574396 0.0 0.0 0.0
Cu 5.8446403506197715 6.012639913098794 39.000587042351185 0.0 0.0 0.0
Cu 5.844640293638049 5.44009894556207 36.58778333030115 0.0 0.0 0.0
Cu 5.844642871417163 1.9543202629435137 37.4748184842404 0.0 0.0 0.0
Cu 7.123138456669807 3.9686414598816833 38.28659258340281 0.0 0.0 0.0
Cu 5.844645134323141 10.134565570641586 25.0 0.0 0.0 0.0
Cu 7.123140717269026 12.178552879047523 25.71399445894837 0.0 0.0 0.0
Cu 7.123142074810604 9.24474772322651 29.06815866566744 0.0 0.0 0.0
Cu 7.123143293268228 8.620479633953964 26.525768558110776 0.0 0.0 0.0
Cu 8.401646551304863 10.707106538178309 27.412803712050028 0.0 0.0 0.0
Cu 5.844638818007443 7.19839311388912 28.233298536607215 0.0 0.0 0.0
Cu 8.40164661019318 11.30157418199353 29.9063338649976 0.0 0.0 0.0
Cu 5.844638877339289 7.779575685883134 30.745643953248994 0.0 0.0 0.0
Cu 7.12314219350864 10.418038356149156 34.09428304285151 0.0 0.0 0.0
Cu 7.123143412620285 9.835042900544924 31.57951852087762 0.0 0.0 0.0
Cu 8.401644112580149 11.884568170038357 32.42106852147356 0.0 0.0 0.0
Cu 5.844638936599543 8.367618653046073 33.254943089102184 0.0 0.0 0.0
Cu 8.401645450389832 12.47486334735677 34.93242837668374 0.0 0.0 0.0
Cu 5.844638995931389 8.948801225040086 35.76728850574396 0.0 0.0 0.0
Cu 7.123141030877294 11.585045499941696 39.000587042351185 0.0 0.0 0.0
Cu 7.1231409738955715 11.012504532404972 36.58778333030115 0.0 0.0 0.0
Cu 7.123143551674685 7.5267258497864145 37.4748184842404 0.0 0.0 0.0
Cu 8.40163913692733 9.541047046724584 38.28659258340281 0.0 0.0 0.0
Cu 7.1231458140656185 4.562159983798685 25.0 0.0 0.0 0.0
Cu 8.401641397011502 6.6061472922046205 25.71399445894837 0.0 0.0 0.0
Cu 8.40164275455308 3.6723421363836084 29.06815866566744 0.0 0.0 0.0
Cu 8.401643973010707 3.0480740471110632 26.525768558110776 0.0 0.0 0.0
Cu 9.680147231047341 5.134700951335407 27.412803712050028 0.0 0.0 0.0
Cu 7.123139497749921 1.6259875270462185 28.233298536607215 0.0 0.0 0.0
Cu 9.680147289935658 5.72916859515063 29.9063338649976 0.0 0.0 0.0
Cu 7.1231395570817675 2.2071700990402325 30.745643953248994 0.0 0.0 0.0
Cu 8.401642873251117 4.845632769306254 34.09428304285151 0.0 0.0 0.0
Cu 8.401644092362764 4.262637313702023 31.57951852087762 0.0 0.0 0.0
Cu 9.680144792322627 6.312162583195455 32.42106852147356 0.0 0.0 0.0
Cu 7.123139616342021 2.7952130662031704 33.254943089102184 0.0 0.0 0.0
Cu 9.68014613013231 6.902457760513869 34.93242837668374 0.0 0.0 0.0
Cu 7.123139675673867 3.3763956381971845 35.76728850574396 0.0 0.0 0.0
Cu 8.401641710619772 6.012639913098794 39.000587042351185 0.0 0.0 0.0
Cu 8.40164165363805 5.44009894556207 36.58778333030115 0.0 0.0 0.0
Cu 8.401644231417162 1.9543202629435137 37.4748184842404 0.0 0.0 0.0
Cu 9.680139816669808 3.9686414598816833 38.28659258340281 0.0 0.0 0.0
Cu 8.401646494323142 10.134565570641586 25.0 0.0 0.0 0.0
Cu 9.680142077269025 12.178552879047523 25.71399445894837 0.0 0.0 0.0
Cu 9.680143434810603 9.24474772322651 29.06815866566744 0.0 0.0 0.0
Cu 9.68014465326823 8.620479633953964 26.525768558110776 0.0 0.0 0.0
Cu 10.958647911304864 10.707106538178309 27.412803712050028 0.0 0.0 0.0
Cu 8.401640178007444 7.19839311388912 28.233298536607215 0.0 0.0 0.0
Cu 10.95864797019318 11.30157418199353 29.9063338649976 0.0 0.0 0.0
Cu 8.40164023733929 7.779575685883134 30.745643953248994 0.0 0.0 0.0
Cu 9.680143553508639 10.418038356149156 34.09428304285151 0.0 0.0 0.0
Cu 9.680144772620286 9.835042900544924 31.57951852087762 0.0 0.0 0.0
Cu 10.95864547258015 11.884568170038357 32.42106852147356 0.0 0.0 0.0
Cu 8.401640296599544 8.367618653046073 33.254943089102184 0.0 0.0 0.0
Cu 10.958646810389833 12.47486334735677 34.93242837668374 0.0 0.0 0.0
Cu 8.40164035593139 8.948801225040086 35.76728850574396 0.0 0.0 0.0
Cu 9.680142390877295 11.585045499941696 39.000587042351185 0.0 0.0 0.0
Cu 9.680142333895573 11.012504532404972 36.58778333030115 0.0 0.0 0.0
Cu 9.680144911674684 7.5267258497864145 37.4748184842404 0.0 0.0 0.0
Cu 10.95864049692733 9.541047046724584 38.28659258340281 0.0 0.0 0.0
Cu 9.680147174065619 4.562159983798685 25.0 0.0 0.0 0.0
Cu 10.958642757011503 6.6061472922046205 25.71399445894837 0.0 0.0 0.0
Cu 10.958644114553081 3.6723421363836084 29.06815866566744 0.0 0.0 0.0
Cu 10.958645333010706 3.0480740471110632 26.525768558110776 0.0 0.0 0.0
Cu 12.23714859104734 5.134700951335407 27.412803712050028 0.0 0.0 0.0
Cu 9.68014085774992 1.6259875270462185 28.233298536607215 0.0 0.0 0.0
Cu 12.237148649935659 5.72916859515063 29.9063338649976 0.0 0.0 0.0
Cu 9.680140917081767 2.2071700990402325 30.745643953248994 0.0 0.0 0.0
Cu 10.958644233251118 4.845632769306254 34.09428304285151 0.0 0.0 0.0
Cu 10.958645452362763 4.262637313702023 31.57951852087762 0.0 0.0 0.0
Cu 12.237146152322627 6.312162583195455 32.42106852147356 0.0 0.0 0.0
Cu 9.68014097634202 2.7952130662031704 33.254943089102184 0.0 0.0 0.0
Cu 12.23714749013231 6.902457760513869 34.93242837668374 0.0 0.0 0.0
Cu 9.680141035673866 3.3763956381971845 35.76728850574396 0.0 0.0 0.0
Cu 10.958643070619772 6.012639913098794 39.000587042351185 0.0 0.0 0.0
Cu 10.95864301363805 5.44009894556207 36.58778333030115 0.0 0.0 0.0
Cu 10.958645591417163 1.9543202629435137 37.4748184842404 0.0 0.0 0.0
Cu 12.237141176669807 3.9686414598816833 38.28659258340281 0.0 0.0 0.0
Cu 10.95864785432314 10.134565570641586 25.0 0.0 0.0 0.0
Cu 12.237143437269026 12.178552879047523 25.71399445894837 0.0 0.0 0.0
Cu 12.237144794810604 9.24474772322651 29.06815866566744 0.0 0.0 0.0
Cu 12.237146013268228 8.620479633953964 26.525768558110776 0.0 0.0 0.0
Cu 13.515649271304863 10.707106538178309 27.412803712050028 0.0 0.0 0.0
Cu 10.958641538007443 7.19839311388912 28.233298536607215 0.0 0.0 0.0
Cu 13.515649330193181 11.30157418199353 29.9063338649976 0.0 0.0 0.0
Cu 10.95864159733929 7.779575685883134 30.745643953248994 0.0 0.0 0.0
Cu 12.23714491350864 10.418038356149156 34.09428304285151 0.0 0.0 0.0
Cu 12.237146132620285 9.835042900544924 31.57951852087762 0.0 0.0 0.0
Cu 13.515646832580149 11.884568170038357 32.42106852147356 0.0 0.0 0.0
Cu 10.958641656599543 8.367618653046073 33.254943089102184 0.0 0.0 0.0
Cu 13.51564817038983 12.47486334735677 34.93242837668374 0.0 0.0 0.0
Cu 10.958641715931389 8.948801225040086 35.76728850574396 0.0 0.0 0.0
Cu 12.237143750877294 11.585045499941696 39.000587042351185 0.0 0.0 0.0
Cu 12.237143693895572 11.012504532404972 36.58778333030115 0.0 0.0 0.0
Cu 12.237146271674685 7.5267258497864145 37.4748184842404 0.0 0.0 0.0
Cu 13.515641856927328 9.541047046724584 38.28659258340281 0.0 0.0 0.0
Cu 12.237148534065618 4.562159983798685 25.0 0.0 0.0 0.0
Cu 13.515644117011504 6.6061472922046205 25.71399445894837 0.0 0.0 0.0
Cu 13.515645474553082 3.6723421363836084 29.06815866566744 0.0 0.0 0.0
Cu 13.515646693010707 3.0480740471110632 26.525768558110776 0.0 0.0 0.0
Cu 14.794149951047341 5.134700951335407 27.412803712050028 0.0 0.0 0.0
Cu 12.237142217749922 1.6259875270462185 28.233298536607215 0.0 0.0 0.0
Cu 14.79415000993566 5.72916859515063 29.9063338649976 0.0 0.0 0.0
Cu 12.237142277081768 2.2071700990402325 30.745643953248994 0.0 0.0 0.0
Cu 13.515645593251119 4.845632769306254 34.09428304285151 0.0 0.0 0.0
Cu 13.515646812362764 4.262637313702023 31.57951852087762 0.0 0.0 0.0
Cu 14.794147512322628 6.312162583195455 32.42106852147356 0.0 0.0 0.0
Cu 12.237142336342021 2.7952130662031704 33.254943089102184 0.0 0.0 0.0
Cu 14.79414885013231 6.902457760513869 34.93242837668374 0.0 0.0 0.0
Cu 12.237142395673867 3.3763956381971845 35.76728850574396 0.0 0.0 0.0
Cu 13.515644430619773 6.012639913098794 39.000587042351185 0.0 0.0 0.0
Cu 13.51564437363805 5.44009894556207 36.58778333030115 0.0 0.0 0.0
Cu 13.515646951417164 1.9543202629435137 37.4748184842404 0.0 0.0 0.0
Cu 14.794142536669806 3.9686414598816833 38.28659258340281 0.0 0.0 0.0
Cu 13.51564921432314 10.134565570641586 25.0 0.0 0.0 0.0
Cu 14.794144797269027 12.178552879047523 25.71399445894837 0.0 0.0 0.0
Cu 14.794146154810605 9.24474772322651 29.06815866566744 0.0 0.0 0.0
Cu 14.79414737326823 8.620479633953964 26.525768558110776 0.0 0.0 0.0
Cu 16.072650631304864 10.707106538178309 27.412803712050028 0.0 0.0 0.0
Cu 13.515642898007444 7.19839311388912 28.233298536607215 0.0 0.0 0.0
Cu 16.072650690193182 11.30157418199353 29.9063338649976 0.0 0.0 0.0
Cu 13.51564295733929 7.779575685883134 30.745643953248994 0.0 0.0 0.0
Cu 14.794146273508641 10.418038356149156 34.09428304285151 0.0 0.0 0.0
Cu 14.794147492620286 9.835042900544924 31.57951852087762 0.0 0.0 0.0
Cu 16.07264819258015 11.884568170038357 32.42106852147356 0.0 0.0 0.0
Cu 13.515643016599544 8.367618653046073 33.254943089102184 0.0 0.0 0.0
Cu 16.072649530389832 12.47486334735677 34.93242837668374 0.0 0.0 0.0
Cu 13.51564307593139 8.948801225040086 35.76728850574396 0.0 0.0 0.0
Cu 14.794145110877295 11.585045499941696 39.000587042351185 0.0 0.0 0.0
Cu 14.794145053895573 11.012504532404972 36.58778333030115 0.0 0.0 0.0
Cu 14.794147631674686 7.5267258497864145 37.4748184842404 0.0 0.0 0.0
Cu 16.07264321692733 9.541047046724584 38.28659258340281 0.0 0.0 0.0
Cu 14.794149894065619 4.562159983798685 25.0 0.0 0.0 0.0
Cu 16.072645477011505 6.6061472922046205 25.71399445894837 0.0 0.0 0.0
Cu 16.072646834553083 3.6723421363836084 29.06815866566744 0.0 0.0 0.0
Cu 16.072648053010706 3.0480740471110632 26.525768558110776 0.0 0.0 0.0
Cu 17.351151311047342 5.134700951335407 27.412803712050028 0.0 0.0 0.0
Cu 14.794143577749923 1.6259875270462185 28.233298536607215 0.0 0.0 0.0
Cu 17.35115136993566 5.72916859515063 29.9063338649976 0.0 0.0 0.0
Cu 14.794143637081769 2.2071700990402325 30.745643953248994 0.0 0.0 0.0
Cu 16.07264695325112 4.845632769306254 34.09428304285151 0.0 0.0 0.0
Cu 16.072648172362765 4.262637313702023 31.57951852087762 0.0 0.0 0.0
Cu 17.35114887232263 6.312162583195455 32.42106852147356 0.0 0.0 0.0
Cu 14.794143696342022 2.7952130662031704 33.254943089102184 0.0 0.0 0.0
Cu 17.35115021013231 6.902457760513869 34.93242837668374 0.0 0.0 0.0
Cu 14.794143755673868 3.3763956381971845 35.76728850574396 0.0 0.0 0.0
Cu 16.072645790619774 6.012639913098794 39.000587042351185 0.0 0.0 0.0
Cu 16.07264573363805 5.44009894556207 36.58778333030115 0.0 0.0 0.0
Cu 16.072648311417165 1.9543202629435137 37.4748184842404 0.0 0.0 0.0
Cu 17.351143896669807 3.9686414598816833 38.28659258340281 0.0 0.0 0.0
Cu 16.07265057432314 10.134565570641586 25.0 0.0 0.0 0.0
Cu 17.351146157269028 12.178552879047523 25.71399445894837 0.0 0.0 0.0
Cu 17.351147514810606 9.24474772322651 29.06815866566744 0.0 0.0 0.0
Cu 17.35114873326823 8.620479633953964 26.525768558110776 0.0 0.0 0.0
Cu 18.629651991304865 10.707106538178309 27.412803712050028 0.0 0.0 0.0
Cu 16.072644258007443 7.19839311388912 28.233298536607215 0.0 0.0 0.0
Cu 18.629652050193183 11.30157418199353 29.9063338649976 0.0 0.0 0.0
Cu 16.07264431733929 7.779575685883134 30.745643953248994 0.0 0.0 0.0
Cu 17.351147633508642 10.418038356149156 34.09428304285151 0.0 0.0 0.0
Cu 17.351148852620287 9.835042900544924 31.57951852087762 0.0 0.0 0.0
Cu 18.62964955258015 11.884568170038357 32.42106852147356 0.0 0.0 0.0
Cu 16.072644376599545 8.367618653046073 33.254943089102184 0.0 0.0 0.0
Cu 18.629650890389833 12.47486334735677 34.93242837668374 0.0 0.0 0.0
Cu 16.07264443593139 8.948801225040086 35.76728850574396 0.0 0.0 0.0
Cu 17.351146470877296 11.585045499941696 39.000587042351185 0.0 0.0 0.0
Cu 17.351146413895574 11.012504532404972 36.58778333030115 0.0 0.0 0.0
Cu 17.351148991674687 7.5267258497864145 37.4748184842404 0.0 0.0 0.0
Cu 18.62964457692733 9.541047046724584 38.28659258340281 0.0 0.0 0.0
Cu 17.35115125406562 4.562159983798685 25.0 0.0 0.0 0.0
Cu 18.629646837011503 6.6061472922046205 25.71399445894837 0.0 0.0 0.0
Cu 18.62964819455308 3.6723421363836084 29.06815866566744 0.0 0.0 0.0
Cu 18.629649413010707 3.0480740471110632 26.525768558110776 0.0 0.0 0.0
Cu 19.90815267104734 5.134700951335407 27.412803712050028 0.0 0.0 0.0
Cu 17.351144937749922 1.6259875270462185 28.233298536607215 0.0 0.0 0.0
Cu 19.908152729935658 5.72916859515063 29.9063338649976 0.0 0.0 0.0
Cu 17.351144997081768 2.2071700990402325 30.745643953248994 0.0 0.0 0.0
Cu 18.629648313251117 4.845632769306254 34.09428304285151 0.0 0.0 0.0
Cu 18.629649532362762 4.262637313702023 31.57951852087762 0.0 0.0 0.0
Cu 19.908150232322626 6.312162583195455 32.42106852147356 0.0 0.0 0.0
Cu 17.35114505634202 2.7952130662031704 33.254943089102184 0.0 0.0 0.0
Cu 19.90815157013231 6.902457760513869 34.93242837668374 0.0 0.0 0.0
Cu 17.351145115673866 3.3763956381971845 35.76728850574396 0.0 0.0 0.0
Cu 18.62964715061977 6.012639913098794 39.000587042351185 0.0 0.0 0.0
Cu 18.62964709363805 5.44009894556207 36.58778333030115 0.0 0.0 0.0
Cu 18.629649671417162 1.9543202629435137 37.4748184842404 0.0 0.0 0.0
Cu 19.90814525666981 3.9686414598816833 38.28659258340281 0.0 0.0 0.0
Cu 18.62965193432314 10.134565570641586 25.0 0.0 0.0 0.0
Cu 19.908147517269025 12.178552879047523 25.71399445894837 0.0 0.0 0.0
Cu 19.908148874810603 9.24474772322651 29.06815866566744 0.0 0.0 0.0
Cu 19.908150093268226 8.620479633953964 26.525768558110776 0.0 0.0 0.0
Cu 21.186653351304862 10.707106538178309 27.412803712050028 0.0 0.0 0.0
Cu 18.62964561800744 7.19839311388912 28.233298536607215 0.0 0.0 0.0
Cu 21.18665341019318 11.30157418199353 29.9063338649976 0.0 0.0 0.0
Cu 18.629645677339287 7.779575685883134 30.745643953248994 0.0 0.0 0.0
Cu 19.90814899350864 10.418038356149156 34.09428304285151 0.0 0.0 0.0
Cu 19.908150212620285 9.835042900544924 31.57951852087762 0.0 0.0 0.0
Cu 21.18665091258015 11.884568170038357 32.42106852147356 0.0 0.0 0.0
Cu 18.629645736599542 8.367618653046073 33.254943089102184 0.0 0.0 0.0
Cu 21.18665225038983 12.47486334735677 34.93242837668374 0.0 0.0 0.0
Cu 18.62964579593139 8.948801225040086 35.76728850574396 0.0 0.0 0.0
Cu 19.908147830877294 11.585045499941696 39.000587042351185 0.0 0.0 0.0
Cu 19.90814777389557 11.012504532404972 36.58778333030115 0.0 0.0 0.0
Cu 19.908150351674685 7.5267258497864145 37.4748184842404 0.0 0.0 0.0
Cu 21.186645936927327 9.541047046724584 38.28659258340281 0.0 0.0 0.0
