# total energy = -865.0944202563262 ev

CRYSTAL
PRIMVEC
12.784964350000001 0.0 0.0
0.0 11.99284469 0.0
0.0 -10.012224762442253 67.95587640412111
PRIMCOORD
240 1 
Cu 0.0 -4.9528892233538535 42.65783789735978 0.0 0.0 0.0
Cu 0.0 5.930279552368462 36.49831374924309 0.0 0.0 0.0
Cu 0.0 4.834560947105537 30.297454983290237 0.0 0.0 0.0
Cu 0.0 3.6815577366511034 41.16990267034628 0.0 0.0 0.0
Cu 0.0 2.656347770482996 34.94517566043253 0.0 0.0 0.0
Cu 0.0 1.552842373119578 28.751828915447224 0.0 0.0 0.0
Cu 0.0 -0.6174242373644336 41.89616337728668 0.0 0.0 0.0
Cu 0.0 -1.7022691352350754 35.71950590055931 0.0 0.0 0.0
Cu 0.0 -2.790338796009632 29.532746050806615 0.0 0.0 0.0
Cu 0.0 -3.884122398218989 40.35416380232456 0.0 0.0 0.0
Cu 0.0 -4.970819628383463 34.17672921997984 0.0 0.0 0.0
Cu 0.0 5.924510607649366 27.98464064599402 0.0 0.0 0.0
Cu 0.0 4.834514432886911 38.81201620724483 0.0 0.0 0.0
Cu 0.0 3.7519156865545993 32.625404377609726 0.0 0.0 0.0
Cu 0.0 2.6868215871568157 26.413999178278807 0.0 0.0 0.0
Cu 0.0 -0.6556534507868037 24.999999999999996 0.0 0.0 0.0
Cu 0.0 1.5709551314457304 37.26979460210631 0.0 0.0 0.0
Cu 0.0 0.4782541179892803 31.080037344972485 0.0 0.0 0.0
Cu 0.0 0.4990272179422366 39.59297034763362 0.0 0.0 0.0
Cu 0.0 -0.6107405231911722 33.394997973973716 0.0 0.0 0.0
Cu 0.0 -1.6811486427955695 27.23773113265023 0.0 0.0 0.0
Cu 0.0 -2.788858863582865 38.043458751703945 0.0 0.0 0.0
Cu 0.0 -3.8824471596502272 31.845153332779475 0.0 0.0 0.0
Cu 0.0 7.019818731452182 25.679005284400766 0.0 0.0 0.0
Cu 1.278496435 5.910414956883625 40.71814527147088 0.0 0.0 0.0
Cu 1.278496435 4.8400188301239195 34.56087843014739 0.0 0.0 0.0
Cu 1.278496435 3.730251088990511 28.36290605648749 0.0 0.0 0.0
Cu 1.278496435 2.6764359338131705 39.204047488673886 0.0 0.0 0.0
Cu 1.278496435 1.5729305364497517 33.01070074368858 0.0 0.0 0.0
Cu 1.278496435 0.5477205702816446 26.78597373377483 0.0 0.0 0.0
Cu 1.278496435 -1.6952323007166186 39.97123575812709 0.0 0.0 0.0
Cu 1.278496435 -2.7927467546837894 33.77914718414127 0.0 0.0 0.0
Cu 1.278496435 -3.8794439848482627 27.601712601796564 0.0 0.0 0.0
Cu 1.278496435 -4.97322758705762 38.42313035331449 0.0 0.0 0.0
Cu 1.278496435 5.931547442167822 32.2363705035618 0.0 0.0 0.0
Cu 1.278496435 4.84670254429718 26.059713026834423 0.0 0.0 0.0
Cu 1.278496435 4.884931757719551 42.95587640412111 0.0 0.0 0.0
Cu 1.278496435 3.751024188943468 36.875839059148625 0.0 0.0 0.0
Cu 1.278496435 2.658323175487017 30.686081802014797 0.0 0.0 0.0
Cu 1.278496435 1.5424567197759322 41.5418772258423 0.0 0.0 0.0
Cu 1.278496435 0.4773626203781505 35.33047202651138 0.0 0.0 0.0
Cu 1.278496435 -0.6052361259541641 29.143860196876282 0.0 0.0 0.0
Cu 1.278496435 -0.6052826401727887 37.65842142083087 0.0 0.0 0.0
Cu 1.278496435 -1.7010012454357144 31.457562654878025 0.0 0.0 0.0
Cu 1.278496435 -2.810677159713398 25.298038506761337 0.0 0.0 0.0
Cu 1.278496435 -2.7905404245194347 42.27687111972035 0.0 0.0 0.0
Cu 1.278496435 -3.8811192234170253 36.11072307134164 0.0 0.0 0.0
Cu 1.278496435 7.018137170515611 29.91241765241716 0.0 0.0 0.0
Cu 2.55699287 -4.9528892233538535 42.65783789735978 0.0 0.0 0.0
Cu 2.55699287 5.930279552368462 36.49831374924309 0.0 0.0 0.0
Cu 2.55699287 4.834560947105537 30.297454983290237 0.0 0.0 0.0
Cu 2.55699287 3.6815577366511034 41.16990267034628 0.0 0.0 0.0
Cu 2.55699287 2.656347770482996 34.94517566043253 0.0 0.0 0.0
Cu 2.55699287 1.552842373119578 28.751828915447224 0.0 0.0 0.0
Cu 2.55699287 -0.6174242373644336 41.89616337728668 0.0 0.0 0.0
Cu 2.55699287 -1.7022691352350754 35.71950590055931 0.0 0.0 0.0
Cu 2.55699287 -2.790338796009632 29.532746050806615 0.0 0.0 0.0
Cu 2.55699287 -3.884122398218989 40.35416380232456 0.0 0.0 0.0
Cu 2.55699287 -4.970819628383463 34.17672921997984 0.0 0.0 0.0
Cu 2.55699287 5.924510607649366 27.98464064599402 0.0 0.0 0.0
Cu 2.55699287 4.834514432886911 38.81201620724483 0.0 0.0 0.0
Cu 2.55699287 3.7519156865545993 32.625404377609726 0.0 0.0 0.0
Cu 2.55699287 2.6868215871568157 26.413999178278807 0.0 0.0 0.0
Cu 2.55699287 -0.6556534507868037 24.999999999999996 0.0 0.0 0.0
Cu 2.55699287 1.5709551314457304 37.26979460210631 0.0 0.0 0.0
Cu 2.55699287 0.4782541179892803 31.080037344972485 0.0 0.0 0.0
Cu 2.55699287 0.4990272179422366 39.59297034763362 0.0 0.0 0.0
Cu 2.55699287 -0.6107405231911722 33.394997973973716 0.0 0.0 0.0
Cu 2.55699287 -1.6811486427955695 27.23773113265023 0.0 0.0 0.0
Cu 2.55699287 -2.788858863582865 38.043458751703945 0.0 0.0 0.0
Cu 2.55699287 -3.8824471596502272 31.845153332779475 0.0 0.0 0.0
Cu 2.55699287 7.019818731452182 25.679005284400766 0.0 0.0 0.0
Cu 3.8354893050000003 5.910414956883625 40.71814527147088 0.0 0.0 0.0
Cu 3.8354893050000003 4.8400188301239195 34.56087843014739 0.0 0.0 0.0
Cu 3.8354893050000003 3.730251088990511 28.36290605648749 0.0 0.0 0.0
Cu 3.8354893050000003 2.6764359338131705 39.204047488673886 0.0 0.0 0.0
Cu 3.8354893050000003 1.5729305364497517 33.01070074368858 0.0 0.0 0.0
Cu 3.8354893050000003 0.5477205702816446 26.78597373377483 0.0 0.0 0.0
Cu 3.8354893050000003 -1.6952323007166186 39.97123575812709 0.0 0.0 0.0
Cu 3.8354893050000003 -2.7927467546837894 33.77914718414127 0.0 0.0 0.0
Cu 3.8354893050000003 -3.8794439848482627 27.601712601796564 0.0 0.0 0.0
Cu 3.8354893050000003 -4.97322758705762 38.42313035331449 0.0 0.0 0.0
Cu 3.8354893050000003 5.931547442167822 32.2363705035618 0.0 0.0 0.0
Cu 3.8354893050000003 4.84670254429718 26.059713026834423 0.0 0.0 0.0
Cu 3.8354893050000003 4.884931757719551 42.95587640412111 0.0 0.0 0.0
Cu 3.8354893050000003 3.751024188943468 36.875839059148625 0.0 0.0 0.0
Cu 3.8354893050000003 2.658323175487017 30.686081802014797 0.0 0.0 0.0
Cu 3.8354893050000003 1.5424567197759322 41.5418772258423 0.0 0.0 0.0
Cu 3.8354893050000003 0.4773626203781505 35.33047202651138 0.0 0.0 0.0
Cu 3.8354893050000003 -0.6052361259541641 29.143860196876282 0.0 0.0 0.0
Cu 3.8354893050000003 -0.6052826401727887 37.65842142083087 0.0 0.0 0.0
Cu 3.8354893050000003 -1.7010012454357144 31.457562654878025 0.0 0.0 0.0
Cu 3.8354893050000003 -2.810677159713398 25.298038506761337 0.0 0.0 0.0
Cu 3.8354893050000003 -2.7905404245194347 42.27687111972035 0.0 0.0 0.0
Cu 3.8354893050000003 -3.8811192234170253 36.11072307134164 0.0 0.0 0.0
Cu 3.8354893050000003 7.018137170515611 29.91241765241716 0.0 0.0 0.0
Cu 5.11398574 -4.9528892233538535 42.65783789735978 0.0 0.0 0.0
Cu 5.11398574 5.930279552368462 36.49831374924309 0.0 0.0 0.0
Cu 5.11398574 4.834560947105537 30.297454983290237 0.0 0.0 0.0
Cu 5.11398574 3.6815577366511034 41.16990267034628 0.0 0.0 0.0
Cu 5.11398574 2.656347770482996 34.94517566043253 0.0 0.0 0.0
Cu 5.11398574 1.552842373119578 28.751828915447224 0.0 0.0 0.0
Cu 5.11398574 -0.6174242373644336 41.89616337728668 0.0 0.0 0.0
Cu 5.11398574 -1.7022691352350754 35.71950590055931 0.0 0.0 0.0
Cu 5.11398574 -2.790338796009632 29.532746050806615 0.0 0.0 0.0
Cu 5.11398574 -3.884122398218989 40.35416380232456 0.0 0.0 0.0
Cu 5.11398574 -4.970819628383463 34.17672921997984 0.0 0.0 0.0
Cu 5.11398574 5.924510607649366 27.98464064599402 0.0 0.0 0.0
Cu 5.11398574 4.834514432886911 38.81201620724483 0.0 0.0 0.0
Cu 5.11398574 3.7519156865545993 32.625404377609726 0.0 0.0 0.0
Cu 5.11398574 2.6868215871568157 26.413999178278807 0.0 0.0 0.0
Cu 5.11398574 -0.6556534507868037 24.999999999999996 0.0 0.0 0.0
Cu 5.11398574 1.5709551314457304 37.26979460210631 0.0 0.0 0.0
Cu 5.11398574 0.4782541179892803 31.080037344972485 0.0 0.0 0.0
Cu 5.11398574 0.4990272179422366 39.59297034763362 0.0 0.0 0.0
Cu 5.11398574 -0.6107405231911722 33.394997973973716 0.0 0.0 0.0
Cu 5.11398574 -1.6811486427955695 27.23773113265023 0.0 0.0 0.0
Cu 5.11398574 -2.788858863582865 38.043458751703945 0.0 0.0 0.0
Cu 5.11398574 -3.8824471596502272 31.845153332779475 0.0 0.0 0.0
Cu 5.11398574 7.019818731452182 25.679005284400766 0.0 0.0 0.0
Cu 6.3924821750000005 5.910414956883625 40.71814527147088 0.0 0.0 0.0
Cu 6.3924821750000005 4.8400188301239195 34.56087843014739 0.0 0.0 0.0
Cu 6.3924821750000005 3.730251088990511 28.36290605648749 0.0 0.0 0.0
Cu 6.3924821750000005 2.6764359338131705 39.204047488673886 0.0 0.0 0.0
Cu 6.3924821750000005 1.5729305364497517 33.01070074368858 0.0 0.0 0.0
Cu 6.3924821750000005 0.5477205702816446 26.78597373377483 0.0 0.0 0.0
Cu 6.3924821750000005 -1.6952323007166186 39.97123575812709 0.0 0.0 0.0
Cu 6.3924821750000005 -2.7927467546837894 33.77914718414127 0.0 0.0 0.0
Cu 6.3924821750000005 -3.8794439848482627 27.601712601796564 0.0 0.0 0.0
Cu 6.3924821750000005 -4.97322758705762 38.42313035331449 0.0 0.0 0.0
Cu 6.3924821750000005 5.931547442167822 32.2363705035618 0.0 0.0 0.0
Cu 6.3924821750000005 4.84670254429718 26.059713026834423 0.0 0.0 0.0
Cu 6.3924821750000005 4.884931757719551 42.95587640412111 0.0 0.0 0.0
Cu 6.3924821750000005 3.751024188943468 36.875839059148625 0.0 0.0 0.0
Cu 6.3924821750000005 2.658323175487017 30.686081802014797 0.0 0.0 0.0
Cu 6.3924821750000005 1.5424567197759322 41.5418772258423 0.0 0.0 0.0
Cu 6.3924821750000005 0.4773626203781505 35.33047202651138 0.0 0.0 0.0
Cu 6.3924821750000005 -0.6052361259541641 29.143860196876282 0.0 0.0 0.0
Cu 6.3924821750000005 -0.6052826401727887 37.65842142083087 0.0 0.0 0.0
Cu 6.3924821750000005 -1.7010012454357144 31.457562654878025 0.0 0.0 0.0
Cu 6.3924821750000005 -2.810677159713398 25.298038506761337 0.0 0.0 0.0
Cu 6.3924821750000005 -2.7905404245194347 42.27687111972035 0.0 0.0 0.0
Cu 6.3924821750000005 -3.8811192234170253 36.11072307134164 0.0 0.0 0.0
Cu 6.3924821750000005 7.018137170515611 29.91241765241716 0.0 0.0 0.0
Cu 7.670978610000001 -4.9528892233538535 42.65783789735978 0.0 0.0 0.0
Cu 7.670978610000001 5.930279552368462 36.49831374924309 0.0 0.0 0.0
Cu 7.670978610000001 4.834560947105537 30.297454983290237 0.0 0.0 0.0
Cu 7.670978610000001 3.6815577366511034 41.16990267034628 0.0 0.0 0.0
Cu 7.670978610000001 2.656347770482996 34.94517566043253 0.0 0.0 0.0
Cu 7.670978610000001 1.552842373119578 28.751828915447224 0.0 0.0 0.0
Cu 7.670978610000001 -0.6174242373644336 41.89616337728668 0.0 0.0 0.0
Cu 7.670978610000001 -1.7022691352350754 35.71950590055931 0.0 0.0 0.0
Cu 7.670978610000001 -2.790338796009632 29.532746050806615 0.0 0.0 0.0
Cu 7.670978610000001 -3.884122398218989 40.35416380232456 0.0 0.0 0.0
Cu 7.670978610000001 -4.970819628383463 34.17672921997984 0.0 0.0 0.0
Cu 7.670978610000001 5.924510607649366 27.98464064599402 0.0 0.0 0.0
Cu 7.670978610000001 4.834514432886911 38.81201620724483 0.0 0.0 0.0
Cu 7.670978610000001 3.7519156865545993 32.625404377609726 0.0 0.0 0.0
Cu 7.670978610000001 2.6868215871568157 26.413999178278807 0.0 0.0 0.0
Cu 7.670978610000001 -0.6556534507868037 24.999999999999996 0.0 0.0 0.0
Cu 7.670978610000001 1.5709551314457304 37.26979460210631 0.0 0.0 0.0
Cu 7.670978610000001 0.4782541179892803 31.080037344972485 0.0 0.0 0.0
Cu 7.670978610000001 0.4990272179422366 39.59297034763362 0.0 0.0 0.0
Cu 7.670978610000001 -0.6107405231911722 33.394997973973716 0.0 0.0 0.0
Cu 7.670978610000001 -1.6811486427955695 27.23773113265023 0.0 0.0 0.0
Cu 7.670978610000001 -2.788858863582865 38.043458751703945 0.0 0.0 0.0
Cu 7.670978610000001 -3.8824471596502272 31.845153332779475 0.0 0.0 0.0
Cu 7.670978610000001 7.019818731452182 25.679005284400766 0.0 0.0 0.0
Cu 8.949475045 5.910414956883625 40.71814527147088 0.0 0.0 0.0
Cu 8.949475045 4.8400188301239195 34.56087843014739 0.0 0.0 0.0
Cu 8.949475045 3.730251088990511 28.36290605648749 0.0 0.0 0.0
Cu 8.949475045 2.6764359338131705 39.204047488673886 0.0 0.0 0.0
Cu 8.949475045 1.5729305364497517 33.01070074368858 0.0 0.0 0.0
Cu 8.949475045 0.5477205702816446 26.78597373377483 0.0 0.0 0.0
Cu 8.949475045 -1.6952323007166186 39.97123575812709 0.0 0.0 0.0
Cu 8.949475045 -2.7927467546837894 33.77914718414127 0.0 0.0 0.0
Cu 8.949475045 -3.8794439848482627 27.601712601796564 0.0 0.0 0.0
Cu 8.949475045 -4.97322758705762 38.42313035331449 0.0 0.0 0.0
Cu 8.949475045 5.931547442167822 32.2363705035618 0.0 0.0 0.0
Cu 8.949475045 4.84670254429718 26.059713026834423 0.0 0.0 0.0
Cu 8.949475045 4.884931757719551 42.95587640412111 0.0 0.0 0.0
Cu 8.949475045 3.751024188943468 36.875839059148625 0.0 0.0 0.0
Cu 8.949475045 2.658323175487017 30.686081802014797 0.0 0.0 0.0
Cu 8.949475045 1.5424567197759322 41.5418772258423 0.0 0.0 0.0
Cu 8.949475045 0.4773626203781505 35.33047202651138 0.0 0.0 0.0
Cu 8.949475045 -0.6052361259541641 29.143860196876282 0.0 0.0 0.0
Cu 8.949475045 -0.6052826401727887 37.65842142083087 0.0 0.0 0.0
Cu 8.949475045 -1.7010012454357144 31.457562654878025 0.0 0.0 0.0
Cu 8.949475045 -2.810677159713398 25.298038506761337 0.0 0.0 0.0
Cu 8.949475045 -2.7905404245194347 42.27687111972035 0.0 0.0 0.0
Cu 8.949475045 -3.8811192234170253 36.11072307134164 0.0 0.0 0.0
Cu 8.949475045 7.018137170515611 29.91241765241716 0.0 0.0 0.0
Cu 10.22797148 -4.9528892233538535 42.65783789735978 0.0 0.0 0.0
Cu 10.22797148 5.930279552368462 36.49831374924309 0.0 0.0 0.0
Cu 10.22797148 4.834560947105537 30.297454983290237 0.0 0.0 0.0
Cu 10.22797148 3.6815577366511034 41.16990267034628 0.0 0.0 0.0
Cu 10.22797148 2.656347770482996 34.94517566043253 0.0 0.0 0.0
Cu 10.22797148 1.552842373119578 28.751828915447224 0.0 0.0 0.0
Cu 10.22797148 -0.6174242373644336 41.89616337728668 0.0 0.0 0.0
Cu 10.22797148 -1.7022691352350754 35.71950590055931 0.0 0.0 0.0
Cu 10.22797148 -2.790338796009632 29.532746050806615 0.0 0.0 0.0
Cu 10.22797148 -3.884122398218989 40.35416380232456 0.0 0.0 0.0
Cu 10.22797148 -4.970819628383463 34.17672921997984 0.0 0.0 0.0
Cu 10.22797148 5.924510607649366 27.98464064599402 0.0 0.0 0.0
Cu 10.22797148 4.834514432886911 38.81201620724483 0.0 0.0 0.0
Cu 10.22797148 3.7519156865545993 32.625404377609726 0.0 0.0 0.0
Cu 10.22797148 2.6868215871568157 26.413999178278807 0.0 0.0 0.0
Cu 10.22797148 -0.6556534507868037 24.999999999999996 0.0 0.0 0.0
Cu 10.22797148 1.5709551314457304 37.26979460210631 0.0 0.0 0.0
Cu 10.22797148 0.4782541179892803 31.080037344972485 0.0 0.0 0.0
Cu 10.22797148 0.4990272179422366 39.59297034763362 0.0 0.0 0.0
Cu 10.22797148 -0.6107405231911722 33.394997973973716 0.0 0.0 0.0
Cu 10.22797148 -1.6811486427955695 27.23773113265023 0.0 0.0 0.0
Cu 10.22797148 -2.788858863582865 38.043458751703945 0.0 0.0 0.0
Cu 10.22797148 -3.8824471596502272 31.845153332779475 0.0 0.0 0.0
Cu 10.22797148 7.019818731452182 25.679005284400766 0.0 0.0 0.0
Cu 11.506467915000002 5.910414956883625 40.71814527147088 0.0 0.0 0.0
Cu 11.506467915000002 4.8400188301239195 34.56087843014739 0.0 0.0 0.0
Cu 11.506467915000002 3.730251088990511 28.36290605648749 0.0 0.0 0.0
Cu 11.506467915000002 2.6764359338131705 39.204047488673886 0.0 0.0 0.0
Cu 11.506467915000002 1.5729305364497517 33.01070074368858 0.0 0.0 0.0
Cu 11.506467915000002 0.5477205702816446 26.78597373377483 0.0 0.0 0.0
Cu 11.506467915000002 -1.6952323007166186 39.97123575812709 0.0 0.0 0.0
Cu 11.506467915000002 -2.7927467546837894 33.77914718414127 0.0 0.0 0.0
Cu 11.506467915000002 -3.8794439848482627 27.601712601796564 0.0 0.0 0.0
Cu 11.506467915000002 -4.97322758705762 38.42313035331449 0.0 0.0 0.0
Cu 11.506467915000002 5.931547442167822 32.2363705035618 0.0 0.0 0.0
Cu 11.506467915000002 4.84670254429718 26.059713026834423 0.0 0.0 0.0
Cu 11.506467915000002 4.884931757719551 42.95587640412111 0.0 0.0 0.0
Cu 11.506467915000002 3.751024188943468 36.875839059148625 0.0 0.0 0.0
Cu 11.506467915000002 2.658323175487017 30.686081802014797 0.0 0.0 0.0
Cu 11.506467915000002 1.5424567197759322 41.5418772258423 0.0 0.0 0.0
Cu 11.506467915000002 0.4773626203781505 35.33047202651138 0.0 0.0 0.0
Cu 11.506467915000002 -0.6052361259541641 29.143860196876282 0.0 0.0 0.0
Cu 11.506467915000002 -0.6052826401727887 37.65842142083087 0.0 0.0 0.0
Cu 11.506467915000002 -1.7010012454357144 31.457562654878025 0.0 0.0 0.0
Cu 11.506467915000002 -2.810677159713398 25.298038506761337 0.0 0.0 0.0
Cu 11.506467915000002 -2.7905404245194347 42.27687111972035 0.0 0.0 0.0
Cu 11.506467915000002 -3.8811192234170253 36.11072307134164 0.0 0.0 0.0
Cu 11.506467915000002 7.018137170515611 29.91241765241716 0.0 0.0 0.0
