# total energy = -954.7685076 ev

CRYSTAL
PRIMVEC
14.535430819780517 0.0 0.0
0.0 14.535430819780517 0.0
0.0 0.0 14.535430819780517
PRIMCOORD
256 1 
Cu 0.0 0.0 0.0 0.0 0.0 0.0
Cu 10.901575409890258 3.63386 10.901575409890258 0.0 0.0 0.0
Cu 12.71850540989026 5.450789999999999 7.2677154098902585 0.0 0.0 0.0
Cu 12.71850540989026 3.63386 9.084645409890259 0.0 0.0 0.0
Cu 10.901575409890258 5.450789999999999 9.084645409890259 0.0 0.0 0.0
Cu 10.901575409890258 3.63386 7.2677154098902585 0.0 0.0 0.0
Cu 12.71850540989026 1.816929999999999 10.901575409890258 0.0 0.0 0.0
Cu 12.71850540989026 0.0 12.71850540989026 0.0 0.0 0.0
Cu 10.901575409890258 1.816929999999999 12.71850540989026 0.0 0.0 0.0
Cu 10.901575409890258 0.0 10.901575409890258 0.0 0.0 0.0
Cu 12.71850540989026 1.816929999999999 7.2677154098902585 0.0 0.0 0.0
Cu 12.71850540989026 0.0 9.084645409890259 0.0 0.0 0.0
Cu 10.901575409890258 1.816929999999999 9.084645409890259 0.0 0.0 0.0
Cu 10.901575409890258 0.0 7.2677154098902585 0.0 0.0 0.0
Cu 10.901575409890258 5.450789999999999 12.71850540989026 0.0 0.0 0.0
Cu 9.084645409890259 5.450789999999999 10.901575409890258 0.0 0.0 0.0
Cu 7.2677154098902585 5.450789999999999 12.71850540989026 0.0 0.0 0.0
Cu 7.2677154098902585 3.63386 10.901575409890258 0.0 0.0 0.0
Cu 9.084645409890259 5.450789999999999 7.2677154098902585 0.0 0.0 0.0
Cu 9.084645409890259 3.63386 9.084645409890259 0.0 0.0 0.0
Cu 7.2677154098902585 5.450789999999999 9.084645409890259 0.0 0.0 0.0
Cu 7.2677154098902585 3.63386 7.2677154098902585 0.0 0.0 0.0
Cu 9.084645409890259 1.816929999999999 10.901575409890258 0.0 0.0 0.0
Cu 9.084645409890259 0.0 12.71850540989026 0.0 0.0 0.0
Cu 7.2677154098902585 1.816929999999999 12.71850540989026 0.0 0.0 0.0
Cu 7.2677154098902585 0.0 10.901575409890258 0.0 0.0 0.0
Cu 9.084645409890259 1.816929999999999 7.2677154098902585 0.0 0.0 0.0
Cu 9.084645409890259 0.0 9.084645409890259 0.0 0.0 0.0
Cu 7.2677154098902585 1.816929999999999 9.084645409890259 0.0 0.0 0.0
Cu 9.084645409890259 3.63386 12.71850540989026 0.0 0.0 0.0
Cu 12.71850540989026 3.63386 12.71850540989026 0.0 0.0 0.0
Cu 7.2677154098902585 0.0 7.2677154098902585 0.0 0.0 0.0
Cu 12.71850540989026 3.63386 5.450789999999999 0.0 0.0 0.0
Cu 10.901575409890258 3.63386 3.63386 0.0 0.0 0.0
Cu 12.71850540989026 5.450789999999999 0.0 0.0 0.0 0.0
Cu 12.71850540989026 3.63386 1.816929999999999 0.0 0.0 0.0
Cu 10.901575409890258 5.450789999999999 1.816929999999999 0.0 0.0 0.0
Cu 10.901575409890258 3.63386 0.0 0.0 0.0 0.0
Cu 12.71850540989026 1.816929999999999 3.63386 0.0 0.0 0.0
Cu 12.71850540989026 0.0 5.450789999999999 0.0 0.0 0.0
Cu 10.901575409890258 1.816929999999999 5.450789999999999 0.0 0.0 0.0
Cu 10.901575409890258 0.0 3.63386 0.0 0.0 0.0
Cu 12.71850540989026 1.816929999999999 0.0 0.0 0.0 0.0
Cu 12.71850540989026 0.0 1.816929999999999 0.0 0.0 0.0
Cu 10.901575409890258 1.816929999999999 1.816929999999999 0.0 0.0 0.0
Cu 10.901575409890258 0.0 0.0 0.0 0.0 0.0
Cu 12.71850540989026 5.450789999999999 3.63386 0.0 0.0 0.0
Cu 9.084645409890259 5.450789999999999 3.63386 0.0 0.0 0.0
Cu 7.2677154098902585 5.450789999999999 5.450789999999999 0.0 0.0 0.0
Cu 7.2677154098902585 3.63386 3.63386 0.0 0.0 0.0
Cu 9.084645409890259 5.450789999999999 0.0 0.0 0.0 0.0
Cu 9.084645409890259 3.63386 1.816929999999999 0.0 0.0 0.0
Cu 7.2677154098902585 5.450789999999999 1.816929999999999 0.0 0.0 0.0
Cu 7.2677154098902585 3.63386 0.0 0.0 0.0 0.0
Cu 9.084645409890259 1.816929999999999 3.63386 0.0 0.0 0.0
Cu 9.084645409890259 0.0 5.450789999999999 0.0 0.0 0.0
Cu 7.2677154098902585 1.816929999999999 5.450789999999999 0.0 0.0 0.0
Cu 7.2677154098902585 0.0 3.63386 0.0 0.0 0.0
Cu 9.084645409890259 1.816929999999999 0.0 0.0 0.0 0.0
Cu 9.084645409890259 0.0 1.816929999999999 0.0 0.0 0.0
Cu 7.2677154098902585 1.816929999999999 1.816929999999999 0.0 0.0 0.0
Cu 9.084645409890259 3.63386 5.450789999999999 0.0 0.0 0.0
Cu 10.901575409890258 5.450789999999999 5.450789999999999 0.0 0.0 0.0
Cu 12.71850540989026 5.450789999999999 10.901575409890258 0.0 0.0 0.0
Cu 10.901575409890258 12.71850540989026 5.450789999999999 0.0 0.0 0.0
Cu 10.901575409890258 10.901575409890258 10.901575409890258 0.0 0.0 0.0
Cu 12.71850540989026 12.71850540989026 7.2677154098902585 0.0 0.0 0.0
Cu 12.71850540989026 10.901575409890258 9.084645409890259 0.0 0.0 0.0
Cu 10.901575409890258 12.71850540989026 9.084645409890259 0.0 0.0 0.0
Cu 10.901575409890258 10.901575409890258 7.2677154098902585 0.0 0.0 0.0
Cu 12.71850540989026 9.084645409890259 10.901575409890258 0.0 0.0 0.0
Cu 12.71850540989026 7.2677154098902585 12.71850540989026 0.0 0.0 0.0
Cu 10.901575409890258 9.084645409890259 12.71850540989026 0.0 0.0 0.0
Cu 10.901575409890258 7.2677154098902585 10.901575409890258 0.0 0.0 0.0
Cu 12.71850540989026 9.084645409890259 7.2677154098902585 0.0 0.0 0.0
Cu 12.71850540989026 7.2677154098902585 9.084645409890259 0.0 0.0 0.0
Cu 10.901575409890258 9.084645409890259 9.084645409890259 0.0 0.0 0.0
Cu 10.901575409890258 7.2677154098902585 7.2677154098902585 0.0 0.0 0.0
Cu 10.901575409890258 12.71850540989026 12.71850540989026 0.0 0.0 0.0
Cu 9.084645409890259 12.71850540989026 10.901575409890258 0.0 0.0 0.0
Cu 7.2677154098902585 12.71850540989026 12.71850540989026 0.0 0.0 0.0
Cu 7.2677154098902585 10.901575409890258 10.901575409890258 0.0 0.0 0.0
Cu 9.084645409890259 12.71850540989026 7.2677154098902585 0.0 0.0 0.0
Cu 9.084645409890259 10.901575409890258 9.084645409890259 0.0 0.0 0.0
Cu 7.2677154098902585 12.71850540989026 9.084645409890259 0.0 0.0 0.0
Cu 7.2677154098902585 10.901575409890258 7.2677154098902585 0.0 0.0 0.0
Cu 9.084645409890259 9.084645409890259 10.901575409890258 0.0 0.0 0.0
Cu 9.084645409890259 7.2677154098902585 12.71850540989026 0.0 0.0 0.0
Cu 7.2677154098902585 9.084645409890259 12.71850540989026 0.0 0.0 0.0
Cu 7.2677154098902585 7.2677154098902585 10.901575409890258 0.0 0.0 0.0
Cu 9.084645409890259 9.084645409890259 7.2677154098902585 0.0 0.0 0.0
Cu 9.084645409890259 7.2677154098902585 9.084645409890259 0.0 0.0 0.0
Cu 7.2677154098902585 9.084645409890259 9.084645409890259 0.0 0.0 0.0
Cu 9.084645409890259 10.901575409890258 12.71850540989026 0.0 0.0 0.0
Cu 7.2677154098902585 7.2677154098902585 0.0 0.0 0.0 0.0
Cu 7.2677154098902585 7.2677154098902585 7.2677154098902585 0.0 0.0 0.0
Cu 12.71850540989026 10.901575409890258 5.450789999999999 0.0 0.0 0.0
Cu 10.901575409890258 10.901575409890258 3.63386 0.0 0.0 0.0
Cu 12.71850540989026 12.71850540989026 0.0 0.0 0.0 0.0
Cu 12.71850540989026 10.901575409890258 1.816929999999999 0.0 0.0 0.0
Cu 10.901575409890258 12.71850540989026 1.816929999999999 0.0 0.0 0.0
Cu 10.901575409890258 10.901575409890258 0.0 0.0 0.0 0.0
Cu 12.71850540989026 9.084645409890259 3.63386 0.0 0.0 0.0
Cu 12.71850540989026 7.2677154098902585 5.450789999999999 0.0 0.0 0.0
Cu 10.901575409890258 9.084645409890259 5.450789999999999 0.0 0.0 0.0
Cu 10.901575409890258 7.2677154098902585 3.63386 0.0 0.0 0.0
Cu 12.71850540989026 9.084645409890259 0.0 0.0 0.0 0.0
Cu 12.71850540989026 7.2677154098902585 1.816929999999999 0.0 0.0 0.0
Cu 10.901575409890258 9.084645409890259 1.816929999999999 0.0 0.0 0.0
Cu 10.901575409890258 7.2677154098902585 0.0 0.0 0.0 0.0
Cu 12.71850540989026 12.71850540989026 3.63386 0.0 0.0 0.0
Cu 9.084645409890259 12.71850540989026 3.63386 0.0 0.0 0.0
Cu 7.2677154098902585 12.71850540989026 5.450789999999999 0.0 0.0 0.0
Cu 7.2677154098902585 10.901575409890258 3.63386 0.0 0.0 0.0
Cu 9.084645409890259 12.71850540989026 0.0 0.0 0.0 0.0
Cu 9.084645409890259 10.901575409890258 1.816929999999999 0.0 0.0 0.0
Cu 7.2677154098902585 12.71850540989026 1.816929999999999 0.0 0.0 0.0
Cu 7.2677154098902585 10.901575409890258 0.0 0.0 0.0 0.0
Cu 9.084645409890259 9.084645409890259 3.63386 0.0 0.0 0.0
Cu 9.084645409890259 7.2677154098902585 5.450789999999999 0.0 0.0 0.0
Cu 7.2677154098902585 9.084645409890259 5.450789999999999 0.0 0.0 0.0
Cu 7.2677154098902585 7.2677154098902585 3.63386 0.0 0.0 0.0
Cu 9.084645409890259 9.084645409890259 0.0 0.0 0.0 0.0
Cu 9.084645409890259 7.2677154098902585 1.816929999999999 0.0 0.0 0.0
Cu 7.2677154098902585 9.084645409890259 1.816929999999999 0.0 0.0 0.0
Cu 9.084645409890259 10.901575409890258 5.450789999999999 0.0 0.0 0.0
Cu 7.2677154098902585 0.0 0.0 0.0 0.0 0.0
Cu 5.450789999999999 12.71850540989026 10.901575409890258 0.0 0.0 0.0
Cu 5.450789999999999 10.901575409890258 12.71850540989026 0.0 0.0 0.0
Cu 3.63386 5.450789999999999 12.71850540989026 0.0 0.0 0.0
Cu 3.63386 3.63386 10.901575409890258 0.0 0.0 0.0
Cu 5.450789999999999 5.450789999999999 7.2677154098902585 0.0 0.0 0.0
Cu 5.450789999999999 3.63386 9.084645409890259 0.0 0.0 0.0
Cu 3.63386 5.450789999999999 9.084645409890259 0.0 0.0 0.0
Cu 3.63386 3.63386 7.2677154098902585 0.0 0.0 0.0
Cu 5.450789999999999 1.816929999999999 10.901575409890258 0.0 0.0 0.0
Cu 5.450789999999999 0.0 12.71850540989026 0.0 0.0 0.0
Cu 3.63386 1.816929999999999 12.71850540989026 0.0 0.0 0.0
Cu 3.63386 0.0 10.901575409890258 0.0 0.0 0.0
Cu 5.450789999999999 1.816929999999999 7.2677154098902585 0.0 0.0 0.0
Cu 5.450789999999999 0.0 9.084645409890259 0.0 0.0 0.0
Cu 3.63386 1.816929999999999 9.084645409890259 0.0 0.0 0.0
Cu 0.0 0.0 7.2677154098902585 0.0 0.0 0.0
Cu 3.63386 0.0 7.2677154098902585 0.0 0.0 0.0
Cu 1.816929999999999 3.63386 12.71850540989026 0.0 0.0 0.0
Cu 0.0 5.450789999999999 12.71850540989026 0.0 0.0 0.0
Cu 0.0 3.63386 10.901575409890258 0.0 0.0 0.0
Cu 1.816929999999999 5.450789999999999 7.2677154098902585 0.0 0.0 0.0
Cu 1.816929999999999 3.63386 9.084645409890259 0.0 0.0 0.0
Cu 0.0 5.450789999999999 9.084645409890259 0.0 0.0 0.0
Cu 0.0 3.63386 7.2677154098902585 0.0 0.0 0.0
Cu 1.816929999999999 1.816929999999999 10.901575409890258 0.0 0.0 0.0
Cu 1.816929999999999 0.0 12.71850540989026 0.0 0.0 0.0
Cu 0.0 1.816929999999999 12.71850540989026 0.0 0.0 0.0
Cu 0.0 0.0 10.901575409890258 0.0 0.0 0.0
Cu 1.816929999999999 1.816929999999999 7.2677154098902585 0.0 0.0 0.0
Cu 1.816929999999999 0.0 9.084645409890259 0.0 0.0 0.0
Cu 1.816929999999999 5.450789999999999 10.901575409890258 0.0 0.0 0.0
Cu 0.0 1.816929999999999 9.084645409890259 0.0 0.0 0.0
Cu 5.450789999999999 5.450789999999999 3.63386 0.0 0.0 0.0
Cu 0.0 1.816929999999999 1.816929999999999 0.0 0.0 0.0
Cu 3.63386 5.450789999999999 5.450789999999999 0.0 0.0 0.0
Cu 3.63386 3.63386 3.63386 0.0 0.0 0.0
Cu 5.450789999999999 5.450789999999999 0.0 0.0 0.0 0.0
Cu 5.450789999999999 3.63386 1.816929999999999 0.0 0.0 0.0
Cu 3.63386 5.450789999999999 1.816929999999999 0.0 0.0 0.0
Cu 3.63386 3.63386 0.0 0.0 0.0 0.0
Cu 5.450789999999999 1.816929999999999 3.63386 0.0 0.0 0.0
Cu 5.450789999999999 0.0 5.450789999999999 0.0 0.0 0.0
Cu 3.63386 1.816929999999999 5.450789999999999 0.0 0.0 0.0
Cu 3.63386 0.0 3.63386 0.0 0.0 0.0
Cu 5.450789999999999 1.816929999999999 0.0 0.0 0.0 0.0
Cu 5.450789999999999 0.0 1.816929999999999 0.0 0.0 0.0
Cu 3.63386 1.816929999999999 1.816929999999999 0.0 0.0 0.0
Cu 5.450789999999999 3.63386 5.450789999999999 0.0 0.0 0.0
Cu 3.63386 0.0 0.0 0.0 0.0 0.0
Cu 1.816929999999999 3.63386 5.450789999999999 0.0 0.0 0.0
Cu 0.0 5.450789999999999 5.450789999999999 0.0 0.0 0.0
Cu 0.0 3.63386 3.63386 0.0 0.0 0.0
Cu 1.816929999999999 5.450789999999999 0.0 0.0 0.0 0.0
Cu 1.816929999999999 3.63386 1.816929999999999 0.0 0.0 0.0
Cu 0.0 5.450789999999999 1.816929999999999 0.0 0.0 0.0
Cu 0.0 3.63386 0.0 0.0 0.0 0.0
Cu 1.816929999999999 1.816929999999999 3.63386 0.0 0.0 0.0
Cu 1.816929999999999 0.0 5.450789999999999 0.0 0.0 0.0
Cu 0.0 1.816929999999999 5.450789999999999 0.0 0.0 0.0
Cu 0.0 0.0 3.63386 0.0 0.0 0.0
Cu 1.816929999999999 1.816929999999999 0.0 0.0 0.0 0.0
Cu 1.816929999999999 0.0 1.816929999999999 0.0 0.0 0.0
Cu 1.816929999999999 5.450789999999999 3.63386 0.0 0.0 0.0
Cu 5.450789999999999 3.63386 12.71850540989026 0.0 0.0 0.0
Cu 5.450789999999999 5.450789999999999 10.901575409890258 0.0 0.0 0.0
Cu 0.0 7.2677154098902585 0.0 0.0 0.0 0.0
Cu 3.63386 10.901575409890258 10.901575409890258 0.0 0.0 0.0
Cu 5.450789999999999 12.71850540989026 7.2677154098902585 0.0 0.0 0.0
Cu 5.450789999999999 10.901575409890258 9.084645409890259 0.0 0.0 0.0
Cu 3.63386 12.71850540989026 9.084645409890259 0.0 0.0 0.0
Cu 3.63386 10.901575409890258 7.2677154098902585 0.0 0.0 0.0
Cu 5.450789999999999 9.084645409890259 10.901575409890258 0.0 0.0 0.0
Cu 5.450789999999999 7.2677154098902585 12.71850540989026 0.0 0.0 0.0
Cu 3.63386 9.084645409890259 12.71850540989026 0.0 0.0 0.0
Cu 3.63386 7.2677154098902585 10.901575409890258 0.0 0.0 0.0
Cu 5.450789999999999 9.084645409890259 7.2677154098902585 0.0 0.0 0.0
Cu 5.450789999999999 7.2677154098902585 9.084645409890259 0.0 0.0 0.0
Cu 3.63386 9.084645409890259 9.084645409890259 0.0 0.0 0.0
Cu 3.63386 7.2677154098902585 7.2677154098902585 0.0 0.0 0.0
Cu 3.63386 12.71850540989026 12.71850540989026 0.0 0.0 0.0
Cu 1.816929999999999 12.71850540989026 10.901575409890258 0.0 0.0 0.0
Cu 0.0 12.71850540989026 12.71850540989026 0.0 0.0 0.0
Cu 0.0 10.901575409890258 10.901575409890258 0.0 0.0 0.0
Cu 1.816929999999999 12.71850540989026 7.2677154098902585 0.0 0.0 0.0
Cu 1.816929999999999 10.901575409890258 9.084645409890259 0.0 0.0 0.0
Cu 0.0 12.71850540989026 9.084645409890259 0.0 0.0 0.0
Cu 0.0 10.901575409890258 7.2677154098902585 0.0 0.0 0.0
Cu 1.816929999999999 9.084645409890259 10.901575409890258 0.0 0.0 0.0
Cu 1.816929999999999 7.2677154098902585 12.71850540989026 0.0 0.0 0.0
Cu 0.0 9.084645409890259 12.71850540989026 0.0 0.0 0.0
Cu 0.0 7.2677154098902585 10.901575409890258 0.0 0.0 0.0
Cu 1.816929999999999 9.084645409890259 7.2677154098902585 0.0 0.0 0.0
Cu 1.816929999999999 7.2677154098902585 9.084645409890259 0.0 0.0 0.0
Cu 0.0 9.084645409890259 9.084645409890259 0.0 0.0 0.0
Cu 1.816929999999999 10.901575409890258 12.71850540989026 0.0 0.0 0.0
Cu 0.0 7.2677154098902585 7.2677154098902585 0.0 0.0 0.0
Cu 5.450789999999999 12.71850540989026 3.63386 0.0 0.0 0.0
Cu 5.450789999999999 10.901575409890258 5.450789999999999 0.0 0.0 0.0
Cu 3.63386 12.71850540989026 5.450789999999999 0.0 0.0 0.0
Cu 3.63386 10.901575409890258 3.63386 0.0 0.0 0.0
Cu 5.450789999999999 12.71850540989026 0.0 0.0 0.0 0.0
Cu 5.450789999999999 10.901575409890258 1.816929999999999 0.0 0.0 0.0
Cu 3.63386 12.71850540989026 1.816929999999999 0.0 0.0 0.0
Cu 3.63386 10.901575409890258 0.0 0.0 0.0 0.0
Cu 5.450789999999999 9.084645409890259 3.63386 0.0 0.0 0.0
Cu 5.450789999999999 7.2677154098902585 5.450789999999999 0.0 0.0 0.0
Cu 3.63386 9.084645409890259 5.450789999999999 0.0 0.0 0.0
Cu 3.63386 7.2677154098902585 3.63386 0.0 0.0 0.0
Cu 5.450789999999999 9.084645409890259 0.0 0.0 0.0 0.0
Cu 5.450789999999999 7.2677154098902585 1.816929999999999 0.0 0.0 0.0
Cu 3.63386 9.084645409890259 1.816929999999999 0.0 0.0 0.0
Cu 3.63386 7.2677154098902585 0.0 0.0 0.0 0.0
Cu 1.816929999999999 12.71850540989026 3.63386 0.0 0.0 0.0
Cu 1.816929999999999 10.901575409890258 5.450789999999999 0.0 0.0 0.0
Cu 0.0 12.71850540989026 5.450789999999999 0.0 0.0 0.0
Cu 0.0 10.901575409890258 3.63386 0.0 0.0 0.0
Cu 1.816929999999999 12.71850540989026 0.0 0.0 0.0 0.0
Cu 1.816929999999999 10.901575409890258 1.816929999999999 0.0 0.0 0.0
Cu 0.0 12.71850540989026 1.816929999999999 0.0 0.0 0.0
Cu 0.0 10.901575409890258 0.0 0.0 0.0 0.0
Cu 1.816929999999999 9.084645409890259 3.63386 0.0 0.0 0.0
Cu 1.816929999999999 7.2677154098902585 5.450789999999999 0.0 0.0 0.0
Cu 0.0 9.084645409890259 5.450789999999999 0.0 0.0 0.0
Cu 0.0 7.2677154098902585 3.63386 0.0 0.0 0.0
Cu 1.816929999999999 9.084645409890259 0.0 0.0 0.0 0.0
Cu 1.816929999999999 7.2677154098902585 1.816929999999999 0.0 0.0 0.0
Cu 0.0 9.084645409890259 1.816929999999999 0.0 0.0 0.0
Cu 12.71850540989026 10.901575409890258 12.71850540989026 0.0 0.0 0.0
Cu 12.71850540989026 12.71850540989026 10.901575409890258 0.0 0.0 0.0
